<?xml version="1.0" encoding="UTF-8"?>

<!-- generated on 2022-12-21 11:39:31 by Eclipse SUMO duarouter Version 1.14.1
<configuration xmlns:xsi="http://www.w3.org/2001/XMLSchema-instance" xsi:noNamespaceSchemaLocation="http://sumo.dlr.de/xsd/duarouterConfiguration.xsd">

    <input>
        <net-file value="osm.net.xml"/>
        <route-files value="route_file.rou.xml"/>
    </input>

    <output>
        <output-file value="filtered.rou.xml"/>
        <write-trips value="true"/>
    </output>

    <report>
        <ignore-errors value="true"/>
    </report>

</configuration>
-->

<routes xmlns:xsi="http://www.w3.org/2001/XMLSchema-instance" xsi:noNamespaceSchemaLocation="http://sumo.dlr.de/xsd/routes_file.xsd">
    <vType id="default" vClass="passenger" color="red"/>
    <trip id="carIn386:1" type="default" depart="0.00" departPos="1.00" arrivalPos="18.33" arrivalSpeed="0.00" from="-1096883479#0" to="705182548"/>
    <trip id="carIn286:1" type="default" depart="84.00" departPos="1.00" arrivalPos="1.00" arrivalSpeed="0.00" from="-1096883479#0" to="-1096883479#0"/>
    <trip id="h4106c1:1" type="default" depart="145.00" departPos="80.33" arrivalPos="1.00" arrivalSpeed="0.00" from="4610374" to="-1096883479#0"/>
    <vType id="random" vClass="passenger" color="blue"/>
    <trip id="randUni22302:1" type="random" depart="148.00" departPos="1.75" arrivalPos="3.81" arrivalSpeed="0.00" from="83517336#1" to="51167934#4"/>
    <trip id="h356c1:1" type="default" depart="158.00" departPos="2.18" arrivalPos="1.00" arrivalSpeed="0.00" from="-23852056#0" to="-1096883479#0"/>
    <trip id="h2214c2:1" type="default" depart="167.00" departPos="33.61" arrivalPos="1.00" arrivalSpeed="0.00" from="168942727#0" to="-1096883479#0"/>
    <trip id="carIn957:1" type="default" depart="203.00" departPos="1.00" arrivalPos="63.93" arrivalSpeed="0.00" from="-1123106898" to="-225400578#2"/>
    <trip id="carIn781:1" type="default" depart="204.00" departPos="1.00" arrivalPos="1.00" arrivalSpeed="0.00" from="-1096883479#0" to="-1123106898"/>
    <trip id="h4458c1:1" type="default" depart="211.00" departPos="73.44" arrivalPos="1.00" arrivalSpeed="0.00" from="55741054" to="-1096883479#0"/>
    <trip id="randUni59:1" type="random" depart="212.00" departPos="67.80" arrivalPos="4.95" arrivalSpeed="0.00" from="24914141#0" to="734578686"/>
    <trip id="carIn909:1" type="default" depart="236.00" departPos="1.00" arrivalPos="33.33" arrivalSpeed="0.00" from="-1096883479#0" to="-1102369940#0"/>
    <trip id="carIn171:1" type="default" depart="240.00" departPos="1.00" arrivalPos="46.86" arrivalSpeed="0.00" from="-1123106898" to="318915602#3"/>
    <trip id="carIn596:1" type="default" depart="240.00" departPos="1.00" arrivalPos="1.00" arrivalSpeed="0.00" from="-1123106898" to="-1096883479#0"/>
    <trip id="carIn1552:1" type="default" depart="249.00" departPos="1.00" arrivalPos="30.88" arrivalSpeed="0.00" from="-1096883479#0" to="23852053#3"/>
    <trip id="h1759c1:1" type="default" depart="264.00" departPos="55.52" arrivalPos="11.96" arrivalSpeed="0.00" from="1102154080#1" to="-844076875#0"/>
    <trip id="carIn1432:1" type="default" depart="266.00" departPos="1.00" arrivalPos="1.29" arrivalSpeed="0.00" from="-1096883479#0" to="23809670#1"/>
    <trip id="carIn1741:1" type="default" depart="271.00" departPos="1.00" arrivalPos="1.00" arrivalSpeed="0.00" from="-1096883479#0" to="-1096883479#0"/>
    <trip id="carIn1496:1" type="default" depart="273.00" departPos="1.00" arrivalPos="4.36" arrivalSpeed="0.00" from="-1096883479#0" to="137630045#0"/>
    <trip id="carIn886:1" type="default" depart="275.00" departPos="1.00" arrivalPos="131.32" arrivalSpeed="0.00" from="-1123106898" to="292429056#0"/>
    <trip id="h1794c1:1" type="default" depart="277.00" departPos="17.32" arrivalPos="1.00" arrivalSpeed="0.00" from="1105574290" to="-1123106898"/>
    <trip id="carIn149:1" type="default" depart="282.00" departPos="1.00" arrivalPos="61.52" arrivalSpeed="0.00" from="-1096883479#0" to="1105526112#1"/>
    <trip id="carIn823:1" type="default" depart="299.00" departPos="1.00" arrivalPos="1.00" arrivalSpeed="0.00" from="-1123106898" to="-1123106898"/>
    <trip id="carIn1452:1" type="default" depart="299.00" departPos="1.00" arrivalPos="113.14" arrivalSpeed="0.00" from="-1096883479#0" to="-24242882"/>
    <trip id="carIn1013:1" type="default" depart="300.00" departPos="1.00" arrivalPos="11.73" arrivalSpeed="0.00" from="-1123106898" to="-24992424#2"/>
    <trip id="carIn806:1" type="default" depart="302.00" departPos="1.00" arrivalPos="1.00" arrivalSpeed="0.00" from="-1096883479#0" to="-1096883479#0"/>
    <trip id="carIn379:1" type="default" depart="307.00" departPos="1.00" arrivalPos="12.52" arrivalSpeed="0.00" from="-1096883479#0" to="-312651885"/>
    <trip id="h79c1:1" type="default" depart="312.00" departPos="26.55" arrivalPos="13.25" arrivalSpeed="0.00" from="-1102154068#0" to="267542610#2"/>
    <trip id="carIn464:1" type="default" depart="313.00" departPos="1.00" arrivalPos="23.55" arrivalSpeed="0.00" from="-1096883479#0" to="24992424#0"/>
    <trip id="carIn310:1" type="default" depart="314.00" departPos="1.00" arrivalPos="85.76" arrivalSpeed="0.00" from="-1123106898" to="-80715076#3"/>
    <trip id="carIn337:1" type="default" depart="314.00" departPos="1.00" arrivalPos="6.31" arrivalSpeed="0.00" from="-1123106898" to="-111251382#2"/>
    <trip id="carIn1014:1" type="default" depart="320.00" departPos="1.00" arrivalPos="1.00" arrivalSpeed="0.00" from="-1096883479#0" to="-1123106898"/>
    <trip id="carIn265:1" type="default" depart="331.00" departPos="1.00" arrivalPos="21.26" arrivalSpeed="0.00" from="-1123106898" to="374734389#3"/>
    <trip id="carIn1070:1" type="default" depart="342.00" departPos="1.00" arrivalPos="66.10" arrivalSpeed="0.00" from="-1096883479#0" to="35269774#3"/>
    <trip id="randUni9957:1" type="random" depart="342.00" departPos="5.31" arrivalPos="0.02" arrivalSpeed="0.00" from="4610351#0" to="-1102154082#0"/>
    <trip id="randUni17527:1" type="random" depart="345.00" departPos="31.31" arrivalPos="2.36" arrivalSpeed="0.00" from="23121445#0" to="153698380#0"/>
    <trip id="h634c1:1" type="default" depart="357.00" departPos="11.86" arrivalPos="1.00" arrivalSpeed="0.00" from="-437325056#1" to="-1123106898"/>
    <trip id="carIn1104:1" type="default" depart="363.00" departPos="1.00" arrivalPos="16.46" arrivalSpeed="0.00" from="-1096883479#0" to="-534588621#1"/>
    <trip id="carIn1382:1" type="default" depart="365.00" departPos="1.00" arrivalPos="42.04" arrivalSpeed="0.00" from="-1096883479#0" to="339201217"/>
    <trip id="carIn714:1" type="default" depart="369.00" departPos="1.00" arrivalPos="52.52" arrivalSpeed="0.00" from="-1096883479#0" to="35578576#2"/>
    <trip id="h1906c1:1" type="default" depart="370.00" departPos="17.54" arrivalPos="14.30" arrivalSpeed="0.00" from="131505631" to="23809678#3"/>
    <trip id="h2732c1:1" type="default" depart="371.00" departPos="41.92" arrivalPos="1.00" arrivalSpeed="0.00" from="24992424#0" to="-1123106898"/>
    <trip id="carIn333:1" type="default" depart="373.00" departPos="1.00" arrivalPos="5.73" arrivalSpeed="0.00" from="-1096883479#0" to="168942727#0"/>
    <trip id="carIn667:1" type="default" depart="373.00" departPos="1.00" arrivalPos="1.00" arrivalSpeed="0.00" from="-1123106898" to="-1096883479#0"/>
    <trip id="carIn413:1" type="default" depart="379.00" departPos="1.00" arrivalPos="54.20" arrivalSpeed="0.00" from="-1096883479#0" to="-1123106322#2"/>
    <trip id="carIn1658:1" type="default" depart="383.00" departPos="1.00" arrivalPos="1.00" arrivalSpeed="0.00" from="-1096883479#0" to="-1096883479#0"/>
    <trip id="carIn1441:1" type="default" depart="392.00" departPos="1.00" arrivalPos="1.00" arrivalSpeed="0.00" from="-1096883479#0" to="-1123106898"/>
    <trip id="carIn837:1" type="default" depart="401.00" departPos="1.00" arrivalPos="93.19" arrivalSpeed="0.00" from="-1123106898" to="23809678#1"/>
    <trip id="h461c1:1" type="default" depart="407.00" departPos="35.96" arrivalPos="1.00" arrivalSpeed="0.00" from="-312651885" to="-1096883479#0"/>
    <trip id="h2545c1:1" type="default" depart="409.00" departPos="59.76" arrivalPos="42.90" arrivalSpeed="0.00" from="23121445#0" to="24243056"/>
    <trip id="carIn226:1" type="default" depart="411.00" departPos="1.00" arrivalPos="199.07" arrivalSpeed="0.00" from="-1123106898" to="82652816"/>
    <trip id="carIn1932:1" type="default" depart="412.00" departPos="1.00" arrivalPos="15.73" arrivalSpeed="0.00" from="-1096883479#0" to="831694400"/>
    <trip id="carIn1237:1" type="default" depart="413.00" departPos="1.00" arrivalPos="1.00" arrivalSpeed="0.00" from="-1096883479#0" to="-1096883479#0"/>
    <trip id="h9c1:1" type="default" depart="415.00" departPos="195.66" arrivalPos="1.82" arrivalSpeed="0.00" from="-1024034687" to="1117432853"/>
    <trip id="carIn460:1" type="default" depart="417.00" departPos="1.00" arrivalPos="56.87" arrivalSpeed="0.00" from="-1123106898" to="4613286#2"/>
    <trip id="carIn1157:1" type="default" depart="418.00" departPos="1.00" arrivalPos="7.03" arrivalSpeed="0.00" from="-1096883479#0" to="4612968#2"/>
    <trip id="h4173c1:1" type="default" depart="419.00" departPos="56.77" arrivalPos="24.50" arrivalSpeed="0.00" from="4613300#4" to="-4597206#0"/>
    <trip id="carIn1595:1" type="default" depart="419.00" departPos="1.00" arrivalPos="37.98" arrivalSpeed="0.00" from="-1123106898" to="-7917219#1"/>
    <trip id="carIn729:1" type="default" depart="421.00" departPos="1.00" arrivalPos="63.79" arrivalSpeed="0.00" from="-1096883479#0" to="4613299#2"/>
    <trip id="carIn388:1" type="default" depart="425.00" departPos="1.00" arrivalPos="1.34" arrivalSpeed="0.00" from="-1123106898" to="23809678#3"/>
    <trip id="carIn1783:1" type="default" depart="426.00" departPos="1.00" arrivalPos="64.27" arrivalSpeed="0.00" from="-1096883479#0" to="1102154082#1"/>
    <trip id="h842c1:1" type="default" depart="428.00" departPos="51.71" arrivalPos="34.61" arrivalSpeed="0.00" from="-60333317#1" to="-1082346484#0"/>
    <trip id="carIn726:1" type="default" depart="428.00" departPos="1.00" arrivalPos="46.21" arrivalSpeed="0.00" from="-1096883479#0" to="176043807#1"/>
    <trip id="randUni26332:1" type="random" depart="429.00" departPos="2.36" arrivalPos="2.70" arrivalSpeed="0.00" from="23121445#5" to="1119837507"/>
    <trip id="carIn733:1" type="default" depart="430.00" departPos="1.00" arrivalPos="49.17" arrivalSpeed="0.00" from="-1096883479#0" to="23809678#1"/>
    <trip id="carIn1153:1" type="default" depart="430.00" departPos="1.00" arrivalPos="17.93" arrivalSpeed="0.00" from="-1123106898" to="-168940071#0"/>
    <trip id="h2226c1:1" type="default" depart="432.00" departPos="51.02" arrivalPos="13.05" arrivalSpeed="0.00" from="169195795#4" to="4597206#0"/>
    <trip id="carIn387:1" type="default" depart="438.00" departPos="1.00" arrivalPos="23.04" arrivalSpeed="0.00" from="-1096883479#0" to="1096883480#1"/>
    <trip id="carIn607:1" type="default" depart="444.00" departPos="1.00" arrivalPos="1.00" arrivalSpeed="0.00" from="-1096883479#0" to="-1096883479#0"/>
    <trip id="carIn1101:1" type="default" depart="444.00" departPos="1.00" arrivalPos="2.87" arrivalSpeed="0.00" from="-1123106898" to="-4613299#2"/>
    <trip id="carIn201:1" type="default" depart="447.00" departPos="1.00" arrivalPos="98.94" arrivalSpeed="0.00" from="-1096883479#0" to="4597206#0"/>
    <trip id="h728c1:1" type="default" depart="451.00" departPos="23.87" arrivalPos="75.47" arrivalSpeed="0.00" from="-4610480" to="1090433701#0"/>
    <trip id="h736c1:1" type="default" depart="455.00" departPos="50.05" arrivalPos="48.27" arrivalSpeed="0.00" from="-4611706#1" to="465376240#0"/>
    <trip id="h358c1:1" type="default" depart="459.00" departPos="31.61" arrivalPos="1.00" arrivalSpeed="0.00" from="-24241762#2" to="-1123106898"/>
    <trip id="carIn1669:1" type="default" depart="459.00" departPos="1.00" arrivalPos="20.43" arrivalSpeed="0.00" from="-1123106898" to="4610354#1"/>
    <trip id="carIn728:1" type="default" depart="460.00" departPos="1.00" arrivalPos="0.58" arrivalSpeed="0.00" from="-1096883479#0" to="-176043799"/>
    <trip id="carIn962:1" type="default" depart="461.00" departPos="1.00" arrivalPos="104.11" arrivalSpeed="0.00" from="-1096883479#0" to="225400578#3"/>
    <trip id="carIn1766:1" type="default" depart="461.00" departPos="1.00" arrivalPos="1.00" arrivalSpeed="0.00" from="-1123106898" to="-1123106898"/>
    <trip id="h1714c1:1" type="default" depart="462.00" departPos="112.06" arrivalPos="5.41" arrivalSpeed="0.00" from="1095407474#0" to="6227656#1"/>
    <trip id="h1771c1:1" type="default" depart="462.00" departPos="59.39" arrivalPos="11.53" arrivalSpeed="0.00" from="1102167703" to="980542375#1"/>
    <trip id="h1944c1:1" type="default" depart="462.00" departPos="52.72" arrivalPos="75.27" arrivalSpeed="0.00" from="137630045#0" to="340498982#1"/>
    <trip id="carIn1225:1" type="default" depart="468.00" departPos="1.00" arrivalPos="94.12" arrivalSpeed="0.00" from="-1096883479#0" to="-979668824#0"/>
    <trip id="carIn1681:1" type="default" depart="468.00" departPos="1.00" arrivalPos="1.82" arrivalSpeed="0.00" from="-1096883479#0" to="305153173"/>
    <trip id="carIn1946:1" type="default" depart="468.00" departPos="1.00" arrivalPos="6.63" arrivalSpeed="0.00" from="-1096883479#0" to="-1095407474#0"/>
    <trip id="h635c1:1" type="default" depart="469.00" departPos="25.92" arrivalPos="103.42" arrivalSpeed="0.00" from="-437325056#1" to="27779097"/>
    <trip id="carIn1259:1" type="default" depart="471.00" departPos="1.00" arrivalPos="1.00" arrivalSpeed="0.00" from="-1123106898" to="-1123106898"/>
    <trip id="h4689c1:1" type="default" depart="473.00" departPos="5.36" arrivalPos="0.00" arrivalSpeed="0.00" from="755551646#2" to="-541295974"/>
    <trip id="carIn902:1" type="default" depart="483.00" departPos="1.00" arrivalPos="22.70" arrivalSpeed="0.00" from="-1096883479#0" to="312651885"/>
    <trip id="carIn1419:1" type="default" depart="483.00" departPos="1.00" arrivalPos="1.00" arrivalSpeed="0.00" from="-1096883479#0" to="-1096883479#0"/>
    <trip id="carIn1875:1" type="default" depart="488.00" departPos="1.00" arrivalPos="1.00" arrivalSpeed="0.00" from="-1096883479#0" to="-1123106898"/>
    <trip id="h2124c1:1" type="default" depart="491.00" departPos="72.98" arrivalPos="1.00" arrivalSpeed="0.00" from="153698384#1" to="-1123106898"/>
    <trip id="carIn1596:1" type="default" depart="492.00" departPos="1.00" arrivalPos="98.44" arrivalSpeed="0.00" from="-1096883479#0" to="1102154066#2"/>
    <trip id="carIn108:1" type="default" depart="493.00" departPos="1.00" arrivalPos="1.00" arrivalSpeed="0.00" from="-1096883479#0" to="-1123106898"/>
    <trip id="h2180c1:1" type="default" depart="494.00" departPos="53.72" arrivalPos="29.54" arrivalSpeed="0.00" from="164039095#0" to="-25302636#1"/>
    <trip id="h3585c1:1" type="default" depart="495.00" departPos="112.78" arrivalPos="36.91" arrivalSpeed="0.00" from="380240681" to="24242892#1"/>
    <trip id="carIn521:1" type="default" depart="501.00" departPos="1.00" arrivalPos="8.98" arrivalSpeed="0.00" from="-1123106898" to="-6228081#1"/>
    <trip id="carIn1372:1" type="default" depart="501.00" departPos="1.00" arrivalPos="40.00" arrivalSpeed="0.00" from="-1123106898" to="-1102369941"/>
    <trip id="h759c1:1" type="default" depart="506.00" departPos="75.83" arrivalPos="30.65" arrivalSpeed="0.00" from="-46138134#0" to="-4402228#1"/>
    <trip id="carIn1604:1" type="default" depart="507.00" departPos="1.00" arrivalPos="1.00" arrivalSpeed="0.00" from="-1096883479#0" to="-1123106898"/>
    <trip id="h409c1:1" type="default" depart="513.00" departPos="203.42" arrivalPos="4.58" arrivalSpeed="0.00" from="-268002745#1" to="-268002748#4"/>
    <trip id="h52c1:1" type="default" depart="515.00" departPos="11.76" arrivalPos="5.98" arrivalSpeed="0.00" from="-1090433701#0" to="-1095407474#0"/>
    <trip id="h428c1:1" type="default" depart="516.00" departPos="26.02" arrivalPos="22.69" arrivalSpeed="0.00" from="-292429056#2" to="158023913#3"/>
    <trip id="h1808c1:1" type="default" depart="517.00" departPos="16.40" arrivalPos="1.00" arrivalSpeed="0.00" from="1110526068" to="-1096883479#0"/>
    <trip id="carIn1476:1" type="default" depart="520.00" departPos="1.00" arrivalPos="1.00" arrivalSpeed="0.00" from="-1096883479#0" to="-1096883479#0"/>
    <trip id="h3057c1:1" type="default" depart="523.00" departPos="31.03" arrivalPos="57.30" arrivalSpeed="0.00" from="30196049#1" to="169999355#0"/>
    <trip id="h3388c2:1" type="default" depart="523.00" departPos="27.67" arrivalPos="17.31" arrivalSpeed="0.00" from="340498976#2" to="-717177007#3"/>
    <trip id="carIn1336:1" type="default" depart="524.00" departPos="1.00" arrivalPos="1.00" arrivalSpeed="0.00" from="-1123106898" to="-1096883479#0"/>
    <trip id="h729c1:1" type="default" depart="526.00" departPos="9.17" arrivalPos="44.09" arrivalSpeed="0.00" from="-4610608" to="-24992424#2"/>
    <trip id="carIn360:1" type="default" depart="530.00" departPos="1.00" arrivalPos="23.28" arrivalSpeed="0.00" from="-1096883479#0" to="153692976#2"/>
    <trip id="carIn1738:1" type="default" depart="531.00" departPos="1.00" arrivalPos="1.00" arrivalSpeed="0.00" from="-1123106898" to="-1123106898"/>
    <trip id="carIn1128:1" type="default" depart="532.00" departPos="1.00" arrivalPos="1.00" arrivalSpeed="0.00" from="-1096883479#0" to="-1123106898"/>
    <trip id="carIn208:1" type="default" depart="533.00" departPos="1.00" arrivalPos="67.30" arrivalSpeed="0.00" from="-1096883479#0" to="1079495669#0"/>
    <trip id="h2646c1:1" type="default" depart="537.00" departPos="79.89" arrivalPos="1.00" arrivalSpeed="0.00" from="24241762#1" to="-1096883479#0"/>
    <trip id="carIn1539:1" type="default" depart="541.00" departPos="1.00" arrivalPos="1.00" arrivalSpeed="0.00" from="-1096883479#0" to="-1096883479#0"/>
    <trip id="carIn319:1" type="default" depart="544.00" departPos="1.00" arrivalPos="153.98" arrivalSpeed="0.00" from="-1123106898" to="36689633#0"/>
    <trip id="h3986c1:1" type="default" depart="546.00" departPos="34.73" arrivalPos="1.00" arrivalSpeed="0.00" from="454285423#0" to="-1096883479#0"/>
    <trip id="carIn105:1" type="default" depart="546.00" departPos="1.00" arrivalPos="1.00" arrivalSpeed="0.00" from="-1123106898" to="-1123106898"/>
    <trip id="carIn1553:1" type="default" depart="546.00" departPos="1.00" arrivalPos="1.00" arrivalSpeed="0.00" from="-1123106898" to="-1123106898"/>
    <trip id="carIn630:1" type="default" depart="548.00" departPos="1.00" arrivalPos="1.00" arrivalSpeed="0.00" from="-1123106898" to="-1123106898"/>
    <trip id="carIn1668:1" type="default" depart="550.00" departPos="1.00" arrivalPos="58.46" arrivalSpeed="0.00" from="-1123106898" to="-267542610#1"/>
    <trip id="carIn1194:1" type="default" depart="552.00" departPos="1.00" arrivalPos="27.42" arrivalSpeed="0.00" from="-1123106898" to="289830064"/>
    <trip id="carIn991:1" type="default" depart="553.00" departPos="1.00" arrivalPos="9.98" arrivalSpeed="0.00" from="-1096883479#0" to="-4611693#4"/>
    <trip id="carIn953:1" type="default" depart="555.00" departPos="1.00" arrivalPos="1.00" arrivalSpeed="0.00" from="-1123106898" to="-1096883479#0"/>
    <trip id="carIn1801:1" type="default" depart="557.00" departPos="1.00" arrivalPos="75.88" arrivalSpeed="0.00" from="-1123106898" to="83517336#3"/>
    <trip id="carIn1832:1" type="default" depart="557.00" departPos="1.00" arrivalPos="39.93" arrivalSpeed="0.00" from="-1096883479#0" to="-1102369941"/>
    <trip id="carIn1616:1" type="default" depart="560.00" departPos="1.00" arrivalPos="1.00" arrivalSpeed="0.00" from="-1123106898" to="-1096883479#0"/>
    <trip id="h3079c1:1" type="default" depart="561.00" departPos="13.18" arrivalPos="1.00" arrivalSpeed="0.00" from="30721662#1" to="-1123106898"/>
    <trip id="h97c1:1" type="default" depart="563.00" departPos="100.10" arrivalPos="1.00" arrivalSpeed="0.00" from="-1115509343#1" to="-1123106898"/>
    <trip id="carIn96:1" type="default" depart="565.00" departPos="1.00" arrivalPos="1.00" arrivalSpeed="0.00" from="-1096883479#0" to="-1123106898"/>
    <trip id="carIn392:1" type="default" depart="568.00" departPos="1.00" arrivalPos="44.89" arrivalSpeed="0.00" from="-1123106898" to="-4613298#1"/>
    <trip id="h4089c1:1" type="default" depart="569.00" departPos="68.86" arrivalPos="1.00" arrivalSpeed="0.00" from="4610353#0" to="-1123106898"/>
    <trip id="carIn1892:1" type="default" depart="569.00" departPos="1.00" arrivalPos="1.00" arrivalSpeed="0.00" from="-1096883479#0" to="-1123106898"/>
    <trip id="carIn1561:1" type="default" depart="570.00" departPos="1.00" arrivalPos="31.25" arrivalSpeed="0.00" from="-1096883479#0" to="437325046#0"/>
    <trip id="h723c1:1" type="default" depart="571.00" departPos="3.06" arrivalPos="1.00" arrivalSpeed="0.00" from="-4610472#2" to="-1123106898"/>
    <trip id="carIn808:1" type="default" depart="571.00" departPos="1.00" arrivalPos="85.04" arrivalSpeed="0.00" from="-1096883479#0" to="-4597206#0"/>
    <trip id="carIn851:1" type="default" depart="571.00" departPos="1.00" arrivalPos="1.00" arrivalSpeed="0.00" from="-1123106898" to="-1096883479#0"/>
    <trip id="carIn1815:1" type="default" depart="572.00" departPos="1.00" arrivalPos="1.00" arrivalSpeed="0.00" from="-1123106898" to="-1096883479#0"/>
    <trip id="carIn501:1" type="default" depart="573.00" departPos="1.00" arrivalPos="23.63" arrivalSpeed="0.00" from="-1123106898" to="-35578576#2"/>
    <trip id="carIn400:1" type="default" depart="575.00" departPos="1.00" arrivalPos="63.97" arrivalSpeed="0.00" from="-1096883479#0" to="4773465#1"/>
    <trip id="h2146c1:1" type="default" depart="576.00" departPos="35.81" arrivalPos="237.78" arrivalSpeed="0.00" from="154041912#1" to="35557161#1"/>
    <trip id="carIn979:1" type="default" depart="580.00" departPos="1.00" arrivalPos="1.00" arrivalSpeed="0.00" from="-1096883479#0" to="-1096883479#0"/>
    <trip id="carIn1570:1" type="default" depart="581.00" departPos="1.00" arrivalPos="1.00" arrivalSpeed="0.00" from="-1096883479#0" to="-1123106898"/>
    <trip id="carIn1705:1" type="default" depart="581.00" departPos="1.00" arrivalPos="7.15" arrivalSpeed="0.00" from="-1123106898" to="339201177#3"/>
    <trip id="carIn47:1" type="default" depart="582.00" departPos="1.00" arrivalPos="1.00" arrivalSpeed="0.00" from="-1123106898" to="-1123106898"/>
    <trip id="carIn1495:1" type="default" depart="587.00" departPos="1.00" arrivalPos="91.57" arrivalSpeed="0.00" from="-1096883479#0" to="46138134#0"/>
    <trip id="carIn1385:1" type="default" depart="588.00" departPos="1.00" arrivalPos="44.02" arrivalSpeed="0.00" from="-1096883479#0" to="153698402#0"/>
    <trip id="carIn769:1" type="default" depart="590.00" departPos="1.00" arrivalPos="3.76" arrivalSpeed="0.00" from="-1096883479#0" to="844076875#0"/>
    <trip id="carIn1494:1" type="default" depart="590.00" departPos="1.00" arrivalPos="50.82" arrivalSpeed="0.00" from="-1096883479#0" to="-268002748#1"/>
    <trip id="carIn1702:1" type="default" depart="592.00" departPos="1.00" arrivalPos="1.00" arrivalSpeed="0.00" from="-1123106898" to="-1096883479#0"/>
    <trip id="h2628c1:1" type="default" depart="593.00" departPos="2.33" arrivalPos="14.84" arrivalSpeed="0.00" from="23852053#3" to="1102154076"/>
    <trip id="h3822c1:1" type="default" depart="593.00" departPos="46.70" arrivalPos="1.00" arrivalSpeed="0.00" from="437325047#0" to="-1096883479#0"/>
    <trip id="carIn524:1" type="default" depart="593.00" departPos="1.00" arrivalPos="32.18" arrivalSpeed="0.00" from="-1096883479#0" to="-4610472#0"/>
    <trip id="h2524c1:1" type="default" depart="594.00" departPos="36.44" arrivalPos="9.25" arrivalSpeed="0.00" from="22972219#0" to="-4396823"/>
    <trip id="carIn927:1" type="default" depart="598.00" departPos="1.00" arrivalPos="4.09" arrivalSpeed="0.00" from="-1123106898" to="195091665#1"/>
    <trip id="carIn978:1" type="default" depart="599.00" departPos="1.00" arrivalPos="1.00" arrivalSpeed="0.00" from="-1123106898" to="-1096883479#0"/>
    <trip id="carIn1392:1" type="default" depart="602.00" departPos="1.00" arrivalPos="67.02" arrivalSpeed="0.00" from="-1096883479#0" to="-371927739#4"/>
    <trip id="carIn343:1" type="default" depart="603.00" departPos="1.00" arrivalPos="1.00" arrivalSpeed="0.00" from="-1096883479#0" to="-1123106898"/>
    <trip id="h403c1:1" type="default" depart="604.00" departPos="219.22" arrivalPos="6.19" arrivalSpeed="0.00" from="-268002745#1" to="-1100903094#0"/>
    <trip id="h1756c1:1" type="default" depart="605.00" departPos="18.90" arrivalPos="75.58" arrivalSpeed="0.00" from="1102154066#2" to="-437325047#0"/>
    <trip id="carIn248:1" type="default" depart="605.00" departPos="1.00" arrivalPos="1.00" arrivalSpeed="0.00" from="-1096883479#0" to="-1123106898"/>
    <trip id="h3456c1:1" type="default" depart="606.00" departPos="12.02" arrivalPos="18.02" arrivalSpeed="0.00" from="35578557#2" to="60333317#1"/>
    <trip id="carIn1926:1" type="default" depart="606.00" departPos="1.00" arrivalPos="124.47" arrivalSpeed="0.00" from="-1123106898" to="61584187#1"/>
    <trip id="carIn177:1" type="default" depart="607.00" departPos="1.00" arrivalPos="57.14" arrivalSpeed="0.00" from="-1123106898" to="4610479#1"/>
    <trip id="carIn1915:1" type="default" depart="607.00" departPos="1.00" arrivalPos="121.09" arrivalSpeed="0.00" from="-1123106898" to="82652816"/>
    <trip id="carIn1226:1" type="default" depart="609.00" departPos="1.00" arrivalPos="1.00" arrivalSpeed="0.00" from="-1123106898" to="-1096883479#0"/>
    <trip id="carIn144:1" type="default" depart="611.00" departPos="1.00" arrivalPos="20.31" arrivalSpeed="0.00" from="-1096883479#0" to="1105526087"/>
    <trip id="carIn1208:1" type="default" depart="611.00" departPos="1.00" arrivalPos="4.37" arrivalSpeed="0.00" from="-1096883479#0" to="-153698391"/>
    <trip id="h2638c1:1" type="default" depart="615.00" departPos="59.63" arrivalPos="1.00" arrivalSpeed="0.00" from="24240246#1" to="-1096883479#0"/>
    <trip id="carIn76:1" type="default" depart="616.00" departPos="1.00" arrivalPos="49.55" arrivalSpeed="0.00" from="-1096883479#0" to="4613299#2"/>
    <trip id="carIn1121:1" type="default" depart="617.00" departPos="1.00" arrivalPos="28.60" arrivalSpeed="0.00" from="-1096883479#0" to="267542609#0"/>
    <trip id="carIn187:1" type="default" depart="618.00" departPos="1.00" arrivalPos="31.94" arrivalSpeed="0.00" from="-1096883479#0" to="-169660686#0"/>
    <trip id="carIn899:1" type="default" depart="618.00" departPos="1.00" arrivalPos="106.92" arrivalSpeed="0.00" from="-1096883479#0" to="1102154084#1"/>
    <trip id="h615c1:1" type="default" depart="619.00" departPos="27.18" arrivalPos="29.08" arrivalSpeed="0.00" from="-43156728#0" to="-4613300#3"/>
    <trip id="carIn1323:1" type="default" depart="620.00" departPos="1.00" arrivalPos="1.00" arrivalSpeed="0.00" from="-1096883479#0" to="-1096883479#0"/>
    <trip id="carIn544:1" type="default" depart="621.00" departPos="1.00" arrivalPos="1.00" arrivalSpeed="0.00" from="-1096883479#0" to="-1096883479#0"/>
    <trip id="carIn566:1" type="default" depart="622.00" departPos="1.00" arrivalPos="27.86" arrivalSpeed="0.00" from="-1096883479#0" to="196850609#0"/>
    <trip id="carIn1138:1" type="default" depart="624.00" departPos="1.00" arrivalPos="104.27" arrivalSpeed="0.00" from="-1096883479#0" to="153692976#1"/>
    <trip id="h711c1:1" type="default" depart="625.00" departPos="4.35" arrivalPos="33.17" arrivalSpeed="0.00" from="-4592757#1" to="1113401735#1"/>
    <trip id="carIn1475:1" type="default" depart="625.00" departPos="1.00" arrivalPos="36.14" arrivalSpeed="0.00" from="-1096883479#0" to="24240245#1"/>
    <trip id="carIn1704:1" type="default" depart="625.00" departPos="1.00" arrivalPos="1.00" arrivalSpeed="0.00" from="-1096883479#0" to="-1096883479#0"/>
    <trip id="h4726c1:1" type="default" depart="627.00" departPos="8.86" arrivalPos="13.09" arrivalSpeed="0.00" from="78298215#0" to="1101961736#1"/>
    <trip id="carIn876:1" type="default" depart="627.00" departPos="1.00" arrivalPos="68.95" arrivalSpeed="0.00" from="-1096883479#0" to="23013165#2"/>
    <trip id="carIn1143:1" type="default" depart="629.00" departPos="1.00" arrivalPos="1.00" arrivalSpeed="0.00" from="-1096883479#0" to="-1123106898"/>
    <trip id="h2320c1:1" type="default" depart="630.00" departPos="23.93" arrivalPos="1.00" arrivalSpeed="0.00" from="190447767" to="-1096883479#0"/>
    <trip id="h3128c1:1" type="default" depart="632.00" departPos="0.43" arrivalPos="13.52" arrivalSpeed="0.00" from="312654706#1" to="1102154066#2"/>
    <trip id="carIn367:1" type="default" depart="635.00" departPos="1.00" arrivalPos="6.80" arrivalSpeed="0.00" from="-1123106898" to="24914141#5"/>
    <trip id="carIn1367:1" type="default" depart="635.00" departPos="1.00" arrivalPos="10.87" arrivalSpeed="0.00" from="-1096883479#0" to="-1102153967#1"/>
    <trip id="carIn1255:1" type="default" depart="636.00" departPos="1.00" arrivalPos="1.00" arrivalSpeed="0.00" from="-1096883479#0" to="-1096883479#0"/>
    <trip id="h3136c1:1" type="default" depart="638.00" departPos="15.64" arrivalPos="97.26" arrivalSpeed="0.00" from="31619761#2" to="4610354#1"/>
    <trip id="h1844c1:1" type="default" depart="639.00" departPos="28.60" arrivalPos="1.79" arrivalSpeed="0.00" from="1120993183#1" to="46140376#2"/>
    <trip id="h4219c1:1" type="default" depart="639.00" departPos="25.28" arrivalPos="24.51" arrivalSpeed="0.00" from="465376253#1" to="-188240629#0"/>
    <trip id="carIn1223:1" type="default" depart="639.00" departPos="1.00" arrivalPos="32.70" arrivalSpeed="0.00" from="-1096883479#0" to="4610362#1"/>
    <trip id="h4101c1:1" type="default" depart="640.00" departPos="68.73" arrivalPos="73.25" arrivalSpeed="0.00" from="4610355#9" to="310176513#2"/>