<?xml version="1.0" encoding="UTF-8"?>

<!-- generated on 2022-12-20 19:18:10 by Eclipse SUMO polyconvert Version 1.14.1
<configuration xmlns:xsi="http://www.w3.org/2001/XMLSchema-instance" xsi:noNamespaceSchemaLocation="http://sumo.dlr.de/xsd/polyconvertConfiguration.xsd">

    <input>
        <net-file value="osm.net.xml"/>
        <osm-files value="osm_bbox.osm.xml.gz"/>
        <osm.keep-full-type value="true"/>
        <type-file value="C:\Program%20Files%20(x86)\Eclipse\Sumo\data\typemap\osmPolyconvert.typ.xml"/>
    </input>

    <output>
        <output-file value="osm.poly.xml"/>
    </output>

    <report>
        <verbose value="true"/>
    </report>

</configuration>
-->

<additional xmlns:xsi="http://www.w3.org/2001/XMLSchema-instance" xsi:noNamespaceSchemaLocation="http://sumo.dlr.de/xsd/additional_file.xsd">
    <location netOffset="-388161.49,-5819008.92" convBoundary="-114.52,-12377.74,11460.68,4250.27" origBoundary="13.350216,52.400521,13.524162,52.548335" projParameter="+proj=utm +zone=33 +ellps=WGS84 +datum=WGS84 +units=m +no_defs"/>

    <poly id="100575042" type="building.residential" color="255,230,230" fill="1" layer="-1.00" shape="3150.250262,1656.346204 3155.860793,1634.222341 3150.120346,1632.758504 3149.505158,1635.008814 3149.949559,1635.154736 3148.572306,1640.682358 3148.999199,1641.262647 3148.298390,1642.101647 3146.999602,1641.685371 3147.137488,1641.170440 3143.348556,1640.175164 3143.209319,1640.934934 3141.475382,1640.483809 3141.282827,1639.453213 3142.177906,1639.110642 3143.448588,1633.674406 3144.165575,1633.869915 3144.796173,1631.396710 3138.871322,1629.881342 3136.750759,1638.307525 3133.334494,1651.959080 3150.250262,1656.346204"/>
    <poly id="101309884" type="landuse.commercial" color="209,209,204" fill="1" layer="-3.00" shape="4186.006696,1634.155322 4124.151286,1668.163859 4123.287021,1668.984055 4123.079063,1669.711921 4123.414912,1671.095478 4154.760008,1739.118697 4173.175920,1779.384936 4216.424767,1799.910315 4218.027387,1799.952982 4220.165294,1799.338487 4221.449517,1797.863679 4222.137952,1796.146033 4222.071889,1794.066633 4208.488865,1761.527785 4221.671600,1755.473956 4230.420510,1759.209700 4243.659148,1790.598906 4232.779397,1797.369867 4238.727950,1810.492053 4252.388963,1816.634714 4254.520749,1816.977338 4256.996057,1815.965981 4295.950504,1796.427084 4296.974665,1798.251762 4310.579110,1790.386249 4306.344663,1783.301976 4305.551910,1783.052325 4304.338390,1783.112359 4303.611875,1783.406503 4297.594521,1786.921434 4296.450547,1787.057836 4295.385477,1786.769657 4293.980440,1786.143992 4254.790561,1727.016309 4211.496550,1671.417532 4219.730491,1664.994001 4219.942315,1664.132524 4219.785068,1662.845185 4202.340810,1641.463124 4197.934972,1636.474684 4195.896360,1634.816983 4193.998681,1634.013006 4192.177152,1633.585693 4190.185113,1633.429190 4188.005638,1633.699656 4186.006696,1634.155322"/>
    <poly id="1014046275" type="building.yes" color="255,230,230" fill="1" layer="-1.00" shape="3182.629253,640.521448 3186.532802,642.059489 3194.285366,645.125663 3198.011014,646.600893 3200.679329,639.887400 3197.768756,638.739045 3205.934487,618.194412 3195.641155,614.127450 3187.468427,634.661129 3185.297551,633.807947 3182.629253,640.521448"/>
    <poly id="1025206459" type="amenity.fountain" color="237,199,199" fill="1" layer="-1.00" shape="2697.311921,833.326218 2700.082411,834.889121 2704.819649,835.150777 2707.702112,833.817999 2709.106095,831.327506 2709.318793,827.773045 2707.291453,825.136452 2703.241247,824.024910 2698.893028,824.466756 2696.515493,827.134734 2696.023725,830.350457 2697.311921,833.326218"/>
    <poly id="1027050440" type="leisure.park" color="207,245,201" fill="1" layer="-2.00" shape="2839.463094,1028.166005 2806.574288,1024.458145 2800.880906,1089.781800 2826.156664,1091.811869 2830.296103,1054.553386 2837.458823,1055.228539 2839.463094,1028.166005"/>
    <poly id="102864701" type="building.residential" color="255,230,230" fill="1" layer="-1.00" shape="3666.313820,1677.377682 3657.132697,1665.473694 3656.881112,1665.145424 3659.463899,1663.163289 3659.715484,1663.491559 3660.262903,1663.078871 3660.024885,1662.750302 3662.594107,1660.768468 3662.845692,1661.096738 3663.373251,1660.706745 3663.121420,1660.367353 3665.690645,1658.385520 3665.956289,1658.735735 3666.510246,1658.311776 3666.244602,1657.961562 3668.820859,1655.990704 3669.086502,1656.340918 3670.922543,1654.965048 3679.802068,1667.042637 3672.340728,1672.771250 3672.194339,1672.596443 3670.546038,1673.868017 3670.678613,1674.032002 3668.496216,1675.704842 3666.313820,1677.377682"/>
    <poly id="102864702" type="building.residential" color="255,230,230" fill="1" layer="-1.00" shape="3660.346816,1704.048817 3666.720783,1699.178775 3658.244017,1688.127177 3657.469888,1688.722915 3655.095124,1685.681911 3655.449007,1685.418158 3655.602426,1685.603937 3657.477679,1684.160430 3657.358671,1683.996145 3659.006720,1682.713444 3659.153355,1682.899373 3666.313820,1677.377682 3657.132697,1665.473694 3640.834020,1677.929508 3660.346816,1704.048817"/>
    <poly id="102979498" type="landuse.civic_admin" color="194,194,130" fill="1" layer="-3.00" shape="1946.562988,817.330672 1942.210410,816.972093 1837.708170,807.789633 1826.431024,806.807737 1781.954133,802.899599 1746.054224,799.744926 1728.976165,794.375785 1714.894238,843.765679 1713.635790,848.178301 1710.571630,858.929822 1698.418161,871.198805 1544.534079,874.795215 1548.768088,1042.617608 1542.594342,1042.767767 1535.992914,1042.916439 1528.319769,1043.100386 1517.064098,1043.353915 1506.799231,1043.596277 1491.742425,1043.857603 1479.959560,1044.212118 1480.384859,1063.086337 1480.689485,1074.496552 1481.464702,1103.778468 1483.092849,1165.489709 1483.492998,1180.536549 1483.644176,1186.341833 1483.853533,1194.126547 1503.291419,1212.694790 1512.312944,1219.346243 1536.108865,1238.840187 1588.049810,1281.691970 1599.019010,1290.447383 1604.963735,1294.007980 1609.310471,1296.536288 1619.314142,1300.395012 1628.846811,1282.420585 1643.600360,1254.235832 1648.566357,1241.750039 1651.803958,1214.892708 1654.434364,1195.137417 1723.708346,1207.700429 1783.328981,1206.337983 1781.208894,1221.942201 1764.960717,1284.533682 1795.391548,1295.478270 1837.815342,1270.734070 1838.903808,1211.309792 1904.743688,1211.233483 1924.100660,1211.455536 1926.508103,1216.498002 1927.400848,1216.656009 1970.762301,1220.033970 1972.426535,1197.396235 1975.697312,1197.656691 1992.378336,1199.018435 2020.432072,1201.126693 2017.364497,1190.857834 2007.725555,1155.131470 2000.334646,1154.573925 1998.277696,1146.997573 1991.217287,1121.228350 1977.397490,1124.876656 1978.754122,1121.808357 1968.516962,1121.158918 1941.564276,1119.437958 1936.208108,1119.113043 1927.568536,1118.572499 1929.805823,1092.438910 1931.437316,1072.884275 1932.672843,1058.067808 1933.003589,1054.354855 1932.176261,1046.828827 1932.357972,1044.944164 1938.178807,984.901904 1938.939867,978.886987 1939.819478,969.987330 1941.552352,950.408175 1944.505457,916.535909 1944.989315,910.872173 1937.261628,909.843774 1946.562988,817.330672"/>
    <poly id="1034000623" type="amenity.waste_disposal" color="237,199,199" fill="1" layer="-1.00" shape="3635.935252,1614.109724 3633.255958,1610.496824 3630.724719,1612.355430 3633.411044,1615.979301 3635.935252,1614.109724"/>
    <poly id="1034000624" type="amenity.parking" color="184,184,179" fill="1" layer="-1.00" shape="3633.411044,1615.979301 3628.592790,1619.691117 3631.103619,1623.051803 3613.372163,1636.707765 3607.405240,1631.131192 3594.701559,1637.042565 3591.009489,1638.581899 3584.599144,1622.466192 3602.976889,1615.327739 3614.657315,1608.871498 3622.825634,1603.805958 3633.411044,1615.979301"/>
    <poly id="1036234485" type="building.commercial" color="255,230,230" fill="1" layer="-1.00" shape="2351.279843,577.601348 2372.184156,579.215015 2385.037584,580.240851 2388.390161,580.499769 2392.899211,580.866381 2396.231431,581.125759 2409.282116,582.169507 2409.316195,581.567851 2409.399587,580.742540 2412.243212,544.847909 2374.816546,541.778326 2357.937919,540.475262 2357.402253,547.186096 2357.290089,548.546179 2357.189858,550.440125 2357.042994,550.855131 2356.859718,551.159675 2356.540985,551.478374 2356.199411,551.686306 2355.956881,551.769621 2355.571612,551.844998 2352.934698,551.714766 2352.575911,559.656819 2352.347742,563.723521 2352.198349,565.240224 2351.379428,576.286057 2351.279843,577.601348"/>
    <poly id="1040532639" type="amenity.parking_space" color="237,199,199" fill="1" layer="-1.00" shape="1715.817869,1222.054592 1717.938309,1222.474276 1719.029665,1216.974888 1716.902439,1216.555356 1715.817869,1222.054592"/>
    <poly id="1040554454" type="leisure.playground" color="207,245,201" fill="1" layer="-2.00" shape="2311.946354,1391.992593 2295.362106,1423.443203 2285.117919,1417.897097 2311.946354,1391.992593"/>
    <poly id="1041458576" type="leisure.garden" color="207,245,201" fill="1" layer="-2.00" shape="3307.586925,778.793505 3309.086329,776.612654 3334.879188,794.268217 3323.475374,810.833925 3266.925986,772.094495 3275.054577,760.285969 3300.213820,777.521425 3301.983025,774.956254 3307.586925,778.793505"/>
    <poly id="104191061" type="landuse.grass" color="194,194,130" fill="1" layer="-3.00" shape="1889.646705,1692.757744 1901.695648,1693.744641 1902.574737,1683.020024 1900.092936,1682.819807 1900.289746,1680.400670 1890.716039,1679.625261 1889.646705,1692.757744"/>
    <poly id="104191065" type="building.service" color="255,230,230" fill="1" layer="-1.00" shape="1965.803578,1868.724762 1965.246876,1876.882755 1989.390843,1878.533180 1989.947335,1870.364068 1965.803578,1868.724762"/>
    <poly id="104191068" type="building.university" color="255,230,230" fill="1" layer="-1.00" shape="2122.795588,1631.778226 2129.167912,1636.587283 2134.343172,1629.772449 2127.211420,1624.390632 2125.920422,1623.418063 2126.138057,1623.134994 2122.603200,1620.465650 2114.079226,1631.706470 2110.088662,1628.691260 2096.739097,1646.294029 2095.517182,1645.375558 2092.016707,1649.994121 2102.800629,1658.131607 2122.795588,1631.778226"/>
    <poly id="104191069" type="landuse.grass" color="194,194,130" fill="1" layer="-3.00" shape="1891.221517,1674.328237 1900.470115,1675.133202 1900.561216,1674.051766 1903.295018,1674.290836 1904.299346,1662.795594 1892.323700,1661.751403 1891.221517,1674.328237"/>
    <poly id="104191071" type="building.commercial" color="255,230,230" fill="1" layer="-1.00" shape="1978.870635,1435.930166 1972.319261,1434.352349 1965.160607,1432.632377 1965.798116,1428.979308 1965.948753,1428.130221 1968.323523,1414.478860 1972.808118,1415.602294 1973.674188,1415.783163 1973.754646,1415.436398 1990.024215,1419.366715 2008.049486,1423.802966 2003.705758,1441.971810 1991.809555,1439.044991 1982.866458,1477.291295 1969.929627,1474.265472 1978.870635,1435.930166"/>
    <poly id="104191072" type="building.apartments" color="255,230,230" fill="1" layer="-1.00" shape="1905.187216,1483.763836 1906.235733,1471.210473 1907.284008,1458.645988 1920.606127,1459.782414 1919.305768,1472.608491 1935.530207,1476.650912 1938.219579,1477.324984 1935.883640,1490.886472 1933.161353,1490.257651 1930.500372,1489.638583 1905.187216,1483.763836"/>
    <poly id="104287993" type="building.university" color="255,230,230" fill="1" layer="-1.00" shape="2181.265399,1677.460806 2189.525079,1680.480621 2192.135434,1673.389454 2192.580112,1673.546412 2196.604510,1662.617908 2187.906660,1659.429850 2181.265399,1677.460806"/>
    <poly id="104287997" type="building.university" color="255,230,230" fill="1" layer="-1.00" shape="2248.108346,1775.256865 2248.249560,1770.346385 2245.974567,1770.286027 2246.046200,1767.725051 2246.126919,1764.963572 2248.402163,1765.035053 2248.832592,1750.303462 2261.435682,1750.588915 2260.415135,1775.649095 2258.560977,1775.590441 2248.108346,1775.256865"/>
    <poly id="104314730" type="building.yes" color="255,230,230" fill="1" layer="-1.00" shape="2034.186187,1613.200409 2040.299512,1603.426719 2069.074224,1621.754350 2058.261467,1638.977656 2030.503282,1621.183680 2022.346995,1616.125435 2010.743901,1608.696410 2015.479678,1601.357173 2034.186187,1613.200409"/>
    <poly id="104314731" type="building.apartments" color="255,230,230" fill="1" layer="-1.00" shape="1893.674604,1623.675348 1892.255696,1640.888428 1899.226298,1641.499733 1901.783490,1641.731640 1906.377562,1641.995713 1907.233575,1634.776852 1906.471544,1634.693811 1906.958359,1630.076000 1909.475853,1630.353314 1909.347625,1630.990473 1913.354264,1631.390146 1913.320552,1631.702480 1919.363325,1632.100960 1919.160048,1635.744291 1921.306969,1635.840758 1921.511496,1632.253038 1922.999642,1632.330910 1925.534893,1634.911274 1924.650797,1643.299173 1941.102225,1644.476672 1942.231843,1632.511265 1946.371407,1632.785577 1946.301689,1633.610594 1949.168440,1633.724301 1951.265200,1634.912425 1954.598773,1628.305639 1944.514944,1627.485930 1893.674604,1623.675348"/>
    <poly id="104314734" type="building.yes" color="255,230,230" fill="1" layer="-1.00" shape="2148.182841,1580.411447 2158.072706,1584.084615 2155.018674,1592.276252 2145.122039,1588.603242 2148.182841,1580.411447"/>
    <poly id="104314736" type="building.service" color="255,230,230" fill="1" layer="-1.00" shape="2020.142062,1800.461143 2031.601991,1804.855517 2033.660286,1799.490304 2024.671911,1796.053117 2024.305952,1796.984926 2021.841670,1796.049827 2020.142062,1800.461143"/>
    <poly id="104314738" type="building.office" color="255,230,230" fill="1" layer="-1.00" shape="2152.288003,1568.846818 2154.664426,1561.916661 2132.640970,1556.823909 2128.562784,1568.076375 2134.641601,1569.475809 2150.594474,1573.235689 2152.288003,1568.846818"/>
    <poly id="104314739" type="building.university" color="255,230,230" fill="1" layer="-1.00" shape="2047.786539,1739.673592 2050.717269,1739.919455 2057.326923,1740.483433 2056.392197,1751.465197 2056.225294,1753.405163 2054.865329,1753.290994 2053.966376,1763.748955 2051.327854,1763.518794 2050.714876,1770.687664 2047.451019,1770.415888 2048.063994,1763.247017 2047.179880,1763.166692 2048.078819,1752.708730 2046.684935,1752.595324 2047.786539,1739.673592"/>
    <poly id="1043377446" type="natural.scrub" color="140,196,107" fill="1" layer="-4.00" shape="3439.620046,1233.670187 3436.646404,1239.466724 3455.394260,1249.300293 3458.510773,1243.211288 3439.620046,1233.670187"/>
    <poly id="1043377447" type="natural.scrub" color="140,196,107" fill="1" layer="-4.00" shape="3428.634745,1245.497190 3418.087383,1266.372395 3441.067266,1277.280613 3453.878259,1252.260404 3435.111042,1242.471780 3432.482206,1247.593031 3428.634745,1245.497190"/>
    <poly id="1043377448" type="natural.scrub" color="140,196,107" fill="1" layer="-4.00" shape="3415.075957,1280.270680 3411.968598,1278.492295 3416.273369,1269.973390 3439.310606,1280.713415 3427.007516,1304.754324 3407.793416,1295.009085 3415.075957,1280.270680"/>
    <poly id="1043377453" type="landuse.grass" color="194,194,130" fill="1" layer="-3.00" shape="3574.951597,1193.744072 3581.312959,1190.732529 3590.734522,1186.752018 3597.468111,1184.611348 3602.997576,1183.576677 3614.277198,1182.893424 3606.823234,1177.316316 3609.921788,1173.475587 3602.842816,1167.667645 3601.994324,1167.052125 3600.439516,1166.418833 3598.766865,1166.288887 3597.313872,1166.576935 3595.984572,1167.240588 3595.204810,1167.892095 3594.550116,1168.674369 3575.896228,1190.418294 3575.191645,1192.013988 3574.951597,1193.744072"/>
    <poly id="1043377454" type="landuse.grass" color="194,194,130" fill="1" layer="-3.00" shape="3576.424858,1197.750818 3601.172353,1225.067287 3603.838984,1221.647819 3611.533407,1212.308637 3614.992596,1207.280416 3618.218615,1202.758091 3621.060006,1195.573647 3622.774994,1190.862164 3620.541273,1188.686005 3619.292165,1187.756635 3617.497357,1186.705793 3615.987934,1186.282917 3614.156055,1186.011826 3609.339148,1186.118275 3606.297240,1186.686243 3596.234047,1188.355239 3579.174084,1194.997167 3576.424858,1197.750818"/>
    <poly id="1043377455" type="landuse.grass" color="194,194,130" fill="1" layer="-3.00" shape="3604.967099,1225.395139 3605.766912,1225.344080 3640.917367,1192.041425 3638.736306,1190.097774 3635.478377,1191.026578 3629.570518,1191.524322 3623.811741,1198.461653 3621.999128,1200.905265 3616.463956,1209.974160 3610.254946,1217.422199 3604.993450,1224.437584 3604.967099,1225.395139"/>
    <poly id="104392614" type="building.yes" color="255,230,230" fill="1" layer="-1.00" shape="2285.509632,1360.769860 2288.081557,1361.958626 2291.673914,1353.844067 2312.882262,1364.341593 2303.803500,1383.895717 2281.961917,1373.913145 2280.213051,1373.106566 2285.509632,1360.769860"/>
    <poly id="104393529" type="building.apartments" color="255,230,230" fill="1" layer="-1.00" shape="2380.694003,1513.928333 2356.958454,1508.149544 2352.381570,1526.568060 2356.801435,1529.662888 2358.627546,1527.552310 2359.820152,1522.607205 2370.351410,1525.220457 2369.035797,1530.735821 2370.470472,1531.760879 2367.054227,1536.822458 2372.885198,1541.710695 2377.693716,1525.757370 2380.694003,1513.928333"/>
    <poly id="104393530" type="building.office" color="255,230,230" fill="1" layer="-1.00" shape="2318.792339,1553.024170 2323.094409,1534.767550 2329.077482,1536.135983 2333.323708,1518.414752 2336.546780,1503.197883 2323.334433,1499.977000 2317.902060,1498.651894 2314.371592,1513.475056 2314.073575,1514.716896 2319.356685,1516.045335 2323.185858,1517.005699 2325.895748,1517.690650 2323.753106,1526.284640 2323.460131,1527.448473 2322.893288,1529.720073 2316.356230,1528.163739 2314.609346,1527.746575 2305.902554,1525.682399 2305.430015,1527.618061 2304.522528,1527.404678 2303.737650,1527.210809 2302.004332,1526.793345 2298.091965,1543.049410 2301.614852,1543.972098 2300.496004,1548.570610 2318.792339,1553.024170"/>
    <poly id="104393531" type="building.commercial" color="255,230,230" fill="1" layer="-1.00" shape="2300.761490,1595.634843 2302.427293,1597.889886 2296.647228,1602.559288 2295.640749,1601.257607 2292.577733,1603.596182 2291.863558,1604.135161 2291.213504,1603.292870 2258.785306,1561.488369 2262.246094,1559.029596 2269.249154,1553.809787 2271.932310,1557.243848 2277.855755,1564.744916 2285.078028,1559.008351 2283.417429,1556.986878 2320.243062,1565.387979 2336.079712,1569.117675 2300.761490,1595.634843"/>
    <poly id="104393532" type="building.apartments" color="255,230,230" fill="1" layer="-1.00" shape="2368.358004,1551.726677 2380.498726,1543.754915 2406.693399,1526.555811 2408.194357,1520.524443 2380.694003,1513.928333 2377.693716,1525.757370 2393.164503,1528.905663 2388.326246,1531.384001 2377.218516,1538.809649 2372.885198,1541.710695 2367.326778,1549.924789 2368.358004,1551.726677"/>
    <poly id="104393533" type="building.office" color="255,230,230" fill="1" layer="-1.00" shape="2251.954847,1521.648260 2240.364282,1518.714010 2236.722471,1534.919564 2223.701825,1531.772554 2224.423967,1529.163633 2228.776440,1513.476291 2221.580847,1511.612119 2237.666518,1479.148637 2259.150211,1484.376352 2256.030620,1498.444811 2242.258180,1495.069763 2238.826336,1509.134096 2254.455423,1512.979458 2251.954847,1521.648260"/>
    <poly id="104393534" type="building.apartments" color="255,230,230" fill="1" layer="-1.00" shape="2356.958454,1508.149544 2336.546780,1503.197883 2333.323708,1518.414752 2338.830360,1520.027533 2339.750141,1515.934229 2348.841062,1518.179047 2346.314734,1529.952998 2344.928894,1529.594516 2343.396860,1534.536087 2334.922985,1532.566802 2333.456109,1538.296985 2340.664437,1540.127651 2338.292664,1549.705996 2340.624694,1550.187977 2341.848930,1546.354930 2345.988300,1537.816450 2351.862948,1528.871961 2352.381570,1526.568060 2356.958454,1508.149544"/>
    <poly id="1044472586" type="landuse.grass" color="194,194,130" fill="1" layer="-3.00" shape="3158.704237,1486.195117 3157.786427,1486.126466 3157.047834,1485.875795 3156.431965,1485.344210 3155.893554,1484.632864 3154.717542,1481.799164 3154.832980,1480.884136 3155.249134,1480.062583 3156.015468,1479.422427 3163.244060,1475.756796 3170.002713,1471.712137 3176.458686,1467.485035 3181.048214,1464.178439 3181.883260,1463.881719 3182.780722,1463.950827 3183.638840,1464.388019 3184.447254,1465.338185 3191.504685,1479.959086 3191.655171,1480.623405 3191.598929,1481.147651 3191.327453,1482.066140 3190.810395,1482.622866 3190.129535,1483.138715 3189.371704,1483.244550 3158.704237,1486.195117"/>
    <poly id="1044516429" type="amenity.bicycle_parking" color="237,199,199" fill="1" layer="-1.00" shape="1805.330479,878.922020 1805.220730,880.382218 1933.557911,891.810960 1933.787579,890.247926 1805.330479,878.922020"/>
    <poly id="1044809533" type="landuse.grass" color="194,194,130" fill="1" layer="-3.00" shape="2020.634903,1484.700920 2023.401616,1473.388749 2034.259564,1476.027346 2031.486044,1487.339663 2020.634903,1484.700920"/>
    <poly id="1044809534" type="landuse.grass" color="194,194,130" fill="1" layer="-3.00" shape="1726.367280,1496.505706 1726.860822,1495.815816 1727.522183,1495.344707 1728.297339,1495.104722 1729.105383,1495.119936 1729.871691,1495.392026 1730.507321,1495.889610 1730.957001,1496.569419 1731.164709,1497.354818 1731.108341,1498.168411 1730.806000,1498.909640 1730.270252,1499.533713 1729.533268,1499.962011 1728.695307,1500.125514 1727.850592,1499.988720 1727.095102,1499.593981 1726.517526,1498.961559 1726.187707,1498.178906 1726.134779,1497.334387 1726.367280,1496.505706"/>
    <poly id="1044809535" type="landuse.grass" color="194,194,130" fill="1" layer="-3.00" shape="1725.777507,1601.275569 1728.009733,1602.749875 1729.618001,1600.321245 1727.385775,1598.846939 1725.777507,1601.275569"/>
    <poly id="1044809536" type="landuse.grass" color="194,194,130" fill="1" layer="-3.00" shape="1720.489101,1609.072639 1722.721326,1610.546942 1724.329589,1608.118310 1722.097364,1606.644007 1720.489101,1609.072639"/>
    <poly id="1044809537" type="landuse.grass" color="194,194,130" fill="1" layer="-3.00" shape="1714.853677,1617.433907 1717.085900,1618.908208 1718.694157,1616.479574 1716.461934,1615.005273 1714.853677,1617.433907"/>
    <poly id="1044809538" type="landuse.grass" color="194,194,130" fill="1" layer="-3.00" shape="1710.189477,1624.616053 1712.421448,1626.079229 1714.029700,1623.650594 1711.797729,1622.187417 1710.189477,1624.616053"/>
    <poly id="1044809539" type="landuse.grass" color="194,194,130" fill="1" layer="-3.00" shape="1696.559939,1628.806193 1696.696703,1627.946280 1697.100036,1627.169393 1697.731488,1626.576546 1698.517438,1626.213908 1699.377479,1626.127796 1700.216640,1626.320349 1700.953264,1626.782273 1701.504444,1627.448669 1701.807625,1628.254175 1701.833922,1629.121548 1701.580832,1629.939566 1701.060672,1630.652314 1700.345563,1631.146892 1699.502592,1631.388408 1698.625982,1631.341359 1697.810955,1631.014731 1697.152985,1630.428632 1696.721912,1629.670514 1696.559939,1628.806193"/>
    <poly id="1044809540" type="natural.scrub" color="140,196,107" fill="1" layer="-4.00" shape="1870.134707,1562.545166 1871.350441,1563.185528 1873.015490,1563.281669 1874.354703,1563.073551 1875.452774,1562.403483 1875.895056,1561.848292 1876.149178,1561.074772 1876.443545,1559.977644 1876.385479,1558.298660 1875.713326,1556.778127 1876.596900,1557.437077 1878.224204,1557.968049 1879.106987,1558.894082 1879.173422,1561.852568 1878.511105,1563.792539 1876.478735,1565.473954 1874.512079,1566.152399 1873.215358,1566.137008 1871.762479,1565.212650 1870.134707,1562.545166"/>
    <poly id="1044809541" type="natural.scrub" color="140,196,107" fill="1" layer="-4.00" shape="1879.726922,1526.654245 1879.686085,1523.928868 1879.275959,1520.777801 1878.092584,1516.742751 1876.536887,1514.262818 1873.988651,1512.317049 1870.861699,1510.896153 1867.254462,1510.454159 1861.019545,1510.271480 1861.140855,1508.722000 1863.702382,1505.214874 1864.045226,1502.347347 1863.206660,1499.461841 1860.544991,1496.394725 1860.160171,1495.579916 1860.189424,1494.766934 1860.630712,1494.167253 1862.791555,1493.974063 1869.601400,1497.693581 1871.299150,1499.547169 1876.635327,1505.347293 1879.417477,1511.060112 1881.658567,1515.650053 1882.797751,1524.971769 1882.623789,1527.501671 1881.911685,1527.829237 1881.321483,1527.842490 1880.636846,1527.579670 1879.726922,1526.654245"/>
    <poly id="1044809542" type="landuse.grass" color="194,194,130" fill="1" layer="-3.00" shape="1861.019545,1510.271480 1856.489359,1510.439991 1852.956744,1509.996331 1849.412347,1509.330383 1846.922462,1508.774284 1845.288854,1508.265719 1845.611218,1506.299997 1849.049020,1491.945894 1849.532665,1490.210231 1862.791555,1493.974063 1860.630712,1494.167253 1860.189424,1494.766934 1860.160171,1495.579916 1860.544991,1496.394725 1863.206660,1499.461841 1864.045226,1502.347347 1863.702382,1505.214874 1861.140855,1508.722000 1861.019545,1510.271480"/>
    <poly id="1044809543" type="landuse.grass" color="194,194,130" fill="1" layer="-3.00" shape="1875.713326,1556.778127 1874.608913,1554.143399 1873.475526,1550.218506 1873.201664,1548.299558 1873.099268,1545.553307 1873.219952,1543.069112 1873.865415,1541.285307 1875.484758,1537.532280 1878.003449,1533.024627 1878.777351,1530.915235 1879.726922,1526.654245 1880.636846,1527.579670 1881.321483,1527.842490 1881.911685,1527.829237 1882.623789,1527.501671 1879.627057,1570.266076 1875.386176,1570.016349 1863.860530,1569.073392 1861.268603,1565.181258 1859.377056,1564.066456 1859.541879,1560.223686 1867.366831,1561.093954 1869.093106,1561.800744 1870.134707,1562.545166 1871.762479,1565.212650 1873.215358,1566.137008 1874.512079,1566.152399 1876.478735,1565.473954 1878.511105,1563.792539 1879.173422,1561.852568 1879.106987,1558.894082 1878.224204,1557.968049 1876.596900,1557.437077 1875.713326,1556.778127"/>
    <poly id="1044809544" type="landuse.grass" color="194,194,130" fill="1" layer="-3.00" shape="1833.391981,1566.942454 1831.722185,1566.635007 1829.375099,1561.557848 1830.387336,1560.088502 1836.862355,1558.574330 1841.373105,1558.751195 1843.650455,1558.911466 1843.597107,1559.558073 1849.022393,1559.959212 1849.075742,1559.312605 1856.758026,1559.874485 1857.775781,1560.463651 1857.942052,1560.916154 1858.053763,1561.659203 1857.911434,1562.574874 1857.680429,1565.284102 1859.400065,1568.717333 1846.245032,1567.755374 1846.499995,1564.300049 1833.657755,1563.364480 1833.391981,1566.942454"/>
    <poly id="1044809545" type="natural.scrub" color="140,196,107" fill="1" layer="-4.00" shape="1846.475912,1532.708946 1848.662309,1538.791218 1853.547317,1534.174763 1852.865505,1533.433391 1852.080896,1532.950265 1850.473433,1532.396601 1848.293793,1532.356537 1846.475912,1532.708946"/>
    <poly id="1044809546" type="landuse.grass" color="194,194,130" fill="1" layer="-3.00" shape="1853.547317,1534.174763 1854.364753,1533.399717 1856.783353,1531.386913 1860.114709,1529.820976 1864.553268,1528.897839 1868.753182,1527.623978 1872.127786,1525.867906 1876.111611,1522.829595 1877.130862,1521.671678 1877.139638,1519.946682 1876.126906,1517.465684 1872.271610,1513.835596 1870.747089,1513.046380 1851.957324,1513.245822 1846.694168,1511.906306 1844.032974,1510.975713 1839.645617,1510.250813 1835.800764,1509.202153 1833.299482,1509.347365 1830.037321,1510.066058 1827.458116,1512.483081 1826.649739,1515.171899 1826.772449,1516.404321 1830.173769,1517.952558 1834.203266,1521.178101 1840.392723,1525.078431 1843.709569,1528.909760 1846.475912,1532.708946 1848.293793,1532.356537 1850.473433,1532.396601 1852.080896,1532.950265 1852.865505,1533.433391 1853.547317,1534.174763"/>
    <poly id="1044809547" type="natural.scrub" color="140,196,107" fill="1" layer="-4.00" shape="1845.512818,1550.568341 1843.614267,1553.070217 1840.039520,1556.188389 1839.831891,1556.916356 1848.367163,1557.681616 1848.273170,1555.914417 1848.154501,1554.559499 1847.669252,1553.201687 1846.769434,1551.819804 1845.512818,1550.568341"/>
    <poly id="1044809548" type="landuse.grass" color="194,194,130" fill="1" layer="-3.00" shape="1671.408204,1628.581933 1651.437166,1615.177239 1643.682832,1626.190169 1643.980266,1626.739863 1644.959834,1627.441123 1645.128705,1627.103490 1648.365896,1629.200554 1647.560021,1630.487253 1658.670459,1637.715093 1659.485872,1636.550587 1662.736368,1638.636233 1662.533078,1638.952384 1663.505107,1639.620434 1664.196802,1639.593743 1669.744703,1630.967316 1671.408204,1628.581933"/>
    <poly id="1044809549" type="landuse.grass" color="194,194,130" fill="1" layer="-3.00" shape="1662.848600,1558.858853 1672.390174,1565.131658 1659.215336,1585.313374 1655.960158,1590.260574 1646.929374,1584.365779 1646.687434,1584.170923 1646.532182,1583.907351 1646.607331,1583.627466 1646.751070,1583.379421 1662.848600,1558.858853"/>
    <poly id="1044809550" type="landuse.grass" color="194,194,130" fill="1" layer="-3.00" shape="1685.354472,1641.187502 1669.744703,1630.967316 1664.196802,1639.593743 1655.457623,1652.987898 1675.717864,1656.326610 1685.354472,1641.187502"/>
    <poly id="1044809551" type="landuse.grass" color="194,194,130" fill="1" layer="-3.00" shape="1817.518176,1716.544339 1801.029228,1707.044553 1798.765091,1710.489396 1795.582538,1708.402137 1783.041391,1727.489887 1783.506691,1729.771744 1791.009827,1734.755253 1792.068749,1733.251464 1793.915013,1734.467405 1799.389114,1726.176618 1801.644426,1722.943401 1816.342615,1733.095450 1817.518176,1716.544339"/>
    <poly id="1044809552" type="landuse.grass" color="194,194,130" fill="1" layer="-3.00" shape="1820.896723,1654.253227 1822.323488,1654.922218 1820.289126,1687.928294 1818.087618,1713.493670 1802.591009,1704.661502 1806.167653,1699.217557 1798.046449,1693.914081 1811.624088,1673.222946 1813.346013,1674.341540 1817.132525,1668.570183 1813.206315,1666.010000 1820.896723,1654.253227"/>