<?xml version="1.0" encoding="UTF-8"?>

<!-- generated on 2022-12-20 19:18:07 by Eclipse SUMO netconvert Version 1.14.1
<configuration xmlns:xsi="http://www.w3.org/2001/XMLSchema-instance" xsi:noNamespaceSchemaLocation="http://sumo.dlr.de/xsd/netconvertConfiguration.xsd">

    <input>
        <type-files value="C:\Program%20Files%20(x86)\Eclipse\Sumo\data\typemap\osmNetconvert.typ.xml"/>
        <osm-files value="osm_bbox.osm.xml.gz"/>
    </input>

    <output>
        <output-file value="osm.net.xml"/>
        <output.street-names value="true"/>
        <output.original-names value="true"/>
        <ptstop-output value="osm_stops.add.xml"/>
        <ptline-output value="osm_ptlines.xml"/>
    </output>

    <projection>
        <proj.utm value="true"/>
    </projection>

    <processing>
        <geometry.remove value="true"/>
        <roundabouts.guess value="true"/>
    </processing>

    <tls_building>
        <tls.discard-simple value="true"/>
        <tls.join value="true"/>
        <tls.guess-signals value="true"/>
        <tls.default-type value="actuated"/>
    </tls_building>

    <ramp_guessing>
        <ramps.guess value="true"/>
    </ramp_guessing>

    <junctions>
        <junctions.join value="true"/>
        <junctions.corner-detail value="5"/>
    </junctions>

    <railway>
        <railway.topology.repair value="true"/>
    </railway>

    <report>
        <verbose value="true"/>
    </report>

</configuration>
-->

<additional xmlns:xsi="http://www.w3.org/2001/XMLSchema-instance" xsi:noNamespaceSchemaLocation="http://sumo.dlr.de/xsd/additional_file.xsd">
    <busStop id="-1615531689" name="S+U Alexanderplatz/Dircksenstraße" lane="-803941113_0" startPos="9.37" endPos="34.37" friendlyPos="true">
        <access lane="272795478_0" pos="14.43" length="8.91" friendlyPos="1"/>
        <access lane="272795479_0" pos="3.11" length="6.55" friendlyPos="1"/>
        <access lane="687966677#2_0" pos="35.29" length="15.45" friendlyPos="1"/>
        <access lane="687966677#3_0" pos="3.10" length="9.63" friendlyPos="1"/>
        <access lane="75228233_0" pos="0.00" length="15.89" friendlyPos="1"/>
    </busStop>
    <busStop id="-1628877119" name="S+U Alexanderplatz/Dircksenstraße" lane="-148452597#4_0" startPos="8.03" endPos="33.03" friendlyPos="true">
        <access lane="-4790825#2_0" pos="6.68" length="3.79" friendlyPos="1"/>
        <access lane="1079045031#3_0" pos="41.73" length="11.80" friendlyPos="1"/>
        <access lane="4790825#1_0" pos="40.13" length="1.01" friendlyPos="1"/>
        <access lane="687966676#0_0" pos="0.00" length="14.57" friendlyPos="1"/>
        <access lane="72157171#1_0" pos="0.00" length="34.71" friendlyPos="1"/>
    </busStop>
    <busStop id="-1662153916" name="U Weinmeisterstraße/Gipsstraße" lane="-153537606#5_0" startPos="55.23" endPos="80.23" friendlyPos="true">
        <access lane="-1103300964#0_0" pos="31.80" length="0.25" friendlyPos="1"/>
        <access lane="1071076180#2_0" pos="20.94" length="13.66" friendlyPos="1"/>
        <access lane="1071210938#3_0" pos="49.97" length="9.08" friendlyPos="1"/>
        <access lane="36892597#3_0" pos="20.96" length="4.55" friendlyPos="1"/>
        <access lane="955672360_0" pos="0.00" length="17.50" friendlyPos="1"/>
    </busStop>
    <busStop id="-1808823755" name="Philippstraße" lane="-1100903092_0" startPos="32.95" endPos="47.95" friendlyPos="true" lines="142"/>
    <busStop id="-2094266776" name="Alexanderplatz" lane="-807043967_0" startPos="0.00" endPos="100.00" friendlyPos="true">
        <access lane="272795482_0" pos="0.00" length="90.29" friendlyPos="1"/>
        <access lane="272795502#0_0" pos="0.00" length="16.40" friendlyPos="1"/>
        <access lane="346206381_0" pos="70.43" length="64.73" friendlyPos="1"/>
        <access lane="346212656#0_0" pos="17.13" length="17.87" friendlyPos="1"/>
        <access lane="346212656#2_0" pos="18.05" length="21.13" friendlyPos="1"/>
    </busStop>
    <busStop id="-2094266777" name="Alexanderplatz" lane="199425795#4_0" startPos="0.00" endPos="138.45" friendlyPos="true">
        <access lane="272780747#1_0" pos="2.13" length="8.05" friendlyPos="1"/>
        <access lane="272780750#0_0" pos="0.00" length="12.60" friendlyPos="1"/>
        <access lane="272795502#1_0" pos="6.82" length="3.30" friendlyPos="1"/>
        <access lane="346206377#2_0" pos="0.20" length="11.76" friendlyPos="1"/>
        <access lane="346212656#3_0" pos="5.32" length="3.87" friendlyPos="1"/>
    </busStop>
    <busStop id="-253846340" name="Brandenburger Tor" lane="-70268945_0" startPos="602.79" endPos="765.28" friendlyPos="true">
        <access lane="317859982#4_0" pos="73.02" length="24.54" friendlyPos="1"/>
        <access lane="530085625#0_0" pos="32.61" length="3.05" friendlyPos="1"/>
        <access lane="915958593#4_0" pos="8.82" length="16.30" friendlyPos="1"/>
        <access lane="915958607#1_0" pos="7.35" length="26.07" friendlyPos="1"/>
        <access lane="915958607#2_0" pos="0.50" length="22.36" friendlyPos="1"/>
    </busStop>
    <busStop id="-2603331695" name="Friedrichstraße" lane="-29384521#0_0" startPos="23.79" endPos="223.79" friendlyPos="true">
        <access lane="254523876_0" pos="0.00" length="18.49" friendlyPos="1"/>
        <access lane="254523886_0" pos="0.00" length="19.96" friendlyPos="1"/>
        <access lane="335043665#0_0" pos="1.78" length="19.63" friendlyPos="1"/>
        <access lane="335043665#1_0" pos="0.20" length="15.91" friendlyPos="1"/>
        <access lane="335043665#2_0" pos="1.65" length="13.05" friendlyPos="1"/>
    </busStop>
    <busStop id="-27411231" name="Alexanderplatz" lane="-72984377#0_0" startPos="0.00" endPos="161.81" friendlyPos="true">
        <access lane="272757274_0" pos="0.00" length="10.59" friendlyPos="1"/>
        <access lane="272757292_0" pos="0.00" length="10.86" friendlyPos="1"/>
        <access lane="272757311_0" pos="9.56" length="8.24" friendlyPos="1"/>
        <access lane="272757337#1_0" pos="5.10" length="10.17" friendlyPos="1"/>
        <access lane="272757337#2_0" pos="0.20" length="8.03" friendlyPos="1"/>
    </busStop>
    <busStop id="-27411240" name="Hackescher Markt" lane="-32590638_0" startPos="235.91" endPos="435.91" friendlyPos="true">
        <access lane="1018271757_0" pos="3.59" length="7.40" friendlyPos="1"/>
        <access lane="377110615_0" pos="0.00" length="14.83" friendlyPos="1"/>
        <access lane="377110617_0" pos="2.91" length="15.07" friendlyPos="1"/>
        <access lane="377110621#0_0" pos="0.00" length="9.95" friendlyPos="1"/>
        <access lane="377110621#1_0" pos="0.00" length="12.94" friendlyPos="1"/>
    </busStop>
    <busStop id="-3837028203" name="U Rosenthaler Platz" lane="-143931933#0_0" startPos="244.89" endPos="269.89" friendlyPos="true">
        <access lane="-46138134#0_0" pos="104.40" length="210.20" friendlyPos="1"/>
        <access lane="1070658285#1_0" pos="34.65" length="223.96" friendlyPos="1"/>
        <access lane="1071076154#2_0" pos="94.86" length="224.67" friendlyPos="1"/>
        <access lane="371927740#2_0" pos="2.31" length="224.04" friendlyPos="1"/>
        <access lane="46138134#0_0" pos="0.00" length="211.83" friendlyPos="1"/>
    </busStop>
    <busStop id="-3858919769" name="Charité - Campus Mitte" lane="-1090433701#0_0" startPos="83.18" endPos="98.18" friendlyPos="true" lines="N5 147"/>
    <busStop id="-3858919773" name="Schumannstraße" lane="-315214529#2_0" startPos="30.44" endPos="45.44" friendlyPos="true" lines="N5 147"/>
    <busStop id="-3867910422" name="Neumannsgasse" lane="-755551646#0_0" startPos="0.00" endPos="1.97" friendlyPos="true" lines="147"/>
    <busStop id="-3867910426" name="S Hackescher Markt" lane="-387892378_0" startPos="6.31" endPos="21.31" friendlyPos="true" lines="N42"/>
    <busStop id="-3869306760" name="Deutsches Theater" lane="-176043807#4_0" startPos="38.11" endPos="46.68" friendlyPos="true" lines="147"/>
    <busStop id="-3869306761" name="Friedrichstraße/Reinhardtstraße" lane="-1100824590_0" startPos="17.82" endPos="32.82" friendlyPos="true" lines="147"/>
    <busStop id="-3869306765" name="S+U Friedrichstraße" lane="-4402228#1_0" startPos="0.00" endPos="8.94" friendlyPos="true" lines="N6 147">
        <access lane="1087301109#3_0" pos="32.72" length="11.08" friendlyPos="1"/>
        <access lane="274524372_0" pos="6.88" length="19.57" friendlyPos="1"/>
        <access lane="304517627#2_0" pos="7.36" length="15.18" friendlyPos="1"/>
        <access lane="304517627#3_0" pos="0.00" length="18.32" friendlyPos="1"/>
        <access lane="422000254_0" pos="1.31" length="13.87" friendlyPos="1"/>
    </busStop>
    <busStop id="-3869306773" name="Werderscher Markt" lane="-23755950#0_0" startPos="7.70" endPos="22.70" friendlyPos="true" lines="147"/>
    <busStop id="-3918673878" name="Hannoversche Straße" lane="-169717723#3_0" startPos="6.77" endPos="21.77" friendlyPos="true" lines="142"/>
    <busStop id="-4294381017" name="Robert-Koch-Platz" lane="-671403217_0" startPos="12.92" endPos="27.92" friendlyPos="true" lines="142 245"/>
    <busStop id="-4692172068" name="Behrenstraße/Wilhelmstraße" lane="-335462874#2_0" startPos="0.00" endPos="8.91" friendlyPos="true" lines="300"/>
    <busStop id="-5824647400" name="Französische Straße" lane="-35557143#4_0" startPos="0.00" endPos="13.64" friendlyPos="true" lines="N6 147"/>
    <busStop id="-6287386721" name="Robert-Koch-Platz" lane="-671403217_0" startPos="12.92" endPos="27.92" friendlyPos="true" lines="245"/>
    <busStop id="-6744165042" name="U Rotes Rathaus" lane="-534588621#0_0" startPos="36.36" endPos="51.36" friendlyPos="true" lines="N60 200 N65 N2 N8 N40 N42 300">
        <access lane="1000864517#2_0" pos="53.47" length="31.01" friendlyPos="1"/>
        <access lane="260138647#0_0" pos="9.54" length="38.01" friendlyPos="1"/>
        <access lane="375901776#5_0" pos="40.49" length="23.96" friendlyPos="1"/>
        <access lane="687804451#0_0" pos="56.90" length="22.07" friendlyPos="1"/>
        <access lane="687804451#1_0" pos="0.00" length="30.44" friendlyPos="1"/>
    </busStop>
    <busStop id="-7974928190" name="Museumsinsel" lane="-942849697_0" startPos="65.40" endPos="265.40" friendlyPos="true">
        <access lane="-4611694#1_0" pos="5.49" length="0.06" friendlyPos="1"/>
        <access lane="251884680#1_0" pos="34.01" length="23.20" friendlyPos="1"/>
        <access lane="251884680#2_0" pos="0.00" length="19.92" friendlyPos="1"/>
        <access lane="339201217_0" pos="0.00" length="20.53" friendlyPos="1"/>
        <access lane="4611694#1_0" pos="23.60" length="4.74" friendlyPos="1"/>
    </busStop>
    <busStop id="-8090274121" name="Unter den Linden" lane="-71326270_0" startPos="261.81" endPos="461.81" friendlyPos="true">
        <access lane="882389496#0_0" pos="0.20" length="3.36" friendlyPos="1"/>
        <access lane="882389496#1_0" pos="0.20" length="2.98" friendlyPos="1"/>
        <access lane="882389496#2_0" pos="0.00" length="1.41" friendlyPos="1"/>
        <access lane="882389496#3_0" pos="0.00" length="2.89" friendlyPos="1"/>
        <access lane="915958586_0" pos="0.00" length="2.65" friendlyPos="1"/>
    </busStop>
    <busStop id="-8196661137" name="Rotes Rathaus" lane="-942849698_0" startPos="459.75" endPos="659.75" friendlyPos="true">
        <access lane="-194962375#0_0" pos="3.77" length="10.68" friendlyPos="1"/>
        <access lane="-194962375#1_0" pos="20.87" length="22.47" friendlyPos="1"/>
        <access lane="-628330906_0" pos="0.00" length="23.67" friendlyPos="1"/>
        <access lane="194962375#1_0" pos="0.00" length="25.13" friendlyPos="1"/>
        <access lane="751595929#1_0" pos="16.22" length="15.48" friendlyPos="1"/>
    </busStop>
    <busStop id="-9023382186" name="U Unter den Linden" lane="-194069450#1_0" startPos="0.00" endPos="12.13" friendlyPos="true" lines="N6 147"/>
    <busStop id="-9681836926" name="Berliner Schloss" lane="-120675240#2_0" startPos="103.81" endPos="117.00" friendlyPos="true" lines="147"/>
    <busStop id="1615531689" name="S+U Alexanderplatz/Dircksenstraße" lane="1051100387#1_0" startPos="0.00" endPos="19.62" friendlyPos="true" lines="M2">
        <access lane="272795478_0" pos="14.43" length="8.91" friendlyPos="1"/>
        <access lane="272795479_0" pos="3.11" length="6.55" friendlyPos="1"/>
        <access lane="687966677#2_0" pos="35.29" length="15.45" friendlyPos="1"/>
        <access lane="687966677#3_0" pos="3.10" length="9.63" friendlyPos="1"/>
        <access lane="75228233_0" pos="0.00" length="15.89" friendlyPos="1"/>
    </busStop>
    <busStop id="1628877119" name="S+U Alexanderplatz/Dircksenstraße" lane="148452597#4_0" startPos="30.49" endPos="55.49" friendlyPos="true">
        <access lane="-4790825#2_0" pos="6.68" length="3.79" friendlyPos="1"/>
        <access lane="1079045031#3_0" pos="41.73" length="11.80" friendlyPos="1"/>
        <access lane="4790825#1_0" pos="40.13" length="1.01" friendlyPos="1"/>
        <access lane="687966676#0_0" pos="0.00" length="14.57" friendlyPos="1"/>
        <access lane="72157171#1_0" pos="0.00" length="34.71" friendlyPos="1"/>
    </busStop>
    <busStop id="1633759760" name="S Hackescher Markt" lane="803941122_0" startPos="35.74" endPos="60.74" friendlyPos="true" lines="M4 M6 M5">
        <access lane="170852455_0" pos="0.00" length="10.81" friendlyPos="1"/>
        <access lane="175506753_0" pos="0.20" length="5.97" friendlyPos="1"/>
        <access lane="46517262#3_0" pos="26.54" length="11.28" friendlyPos="1"/>
        <access lane="46517262#4_0" pos="1.83" length="4.84" friendlyPos="1"/>
        <access lane="46517262#5_0" pos="0.00" length="9.37" friendlyPos="1"/>
    </busStop>
    <busStop id="1633759766" name="S Hackescher Markt" lane="421641064_0" startPos="48.15" endPos="60.65" friendlyPos="true" lines="M4 M5 M1 M6">
        <access lane="268940759_0" pos="0.10" length="3.93" friendlyPos="1"/>
        <access lane="304514893#7_0" pos="5.14" length="3.34" friendlyPos="1"/>
        <access lane="47986664#1_0" pos="0.20" length="11.59" friendlyPos="1"/>
        <access lane="47986664#2_0" pos="0.00" length="11.28" friendlyPos="1"/>
        <access lane="47986664#3_0" pos="0.73" length="7.23" friendlyPos="1"/>
    </busStop>
    <busStop id="1661927028" name="Monbijouplatz" lane="101699679#4_0" startPos="53.49" endPos="65.99" friendlyPos="true" lines="M5 M1">
        <access lane="1085398475_0" pos="55.69" length="7.45" friendlyPos="1"/>
        <access lane="1120993183#1_0" pos="55.84" length="3.88" friendlyPos="1"/>
        <access lane="30721660#1_0" pos="0.00" length="6.02" friendlyPos="1"/>
        <access lane="4610361_0" pos="0.00" length="6.75" friendlyPos="1"/>
        <access lane="533594855_0" pos="115.23" length="38.36" friendlyPos="1"/>
    </busStop>
    <busStop id="1662153916" name="U Weinmeisterstraße/Gipsstraße" lane="153537606#5_0" startPos="39.82" endPos="64.82" friendlyPos="true" lines="M1">
        <access lane="-1103300964#0_0" pos="31.80" length="0.25" friendlyPos="1"/>
        <access lane="1071076180#2_0" pos="20.94" length="13.66" friendlyPos="1"/>
        <access lane="1071210938#3_0" pos="49.97" length="9.08" friendlyPos="1"/>
        <access lane="36892597#3_0" pos="20.96" length="4.55" friendlyPos="1"/>
        <access lane="955672360_0" pos="0.00" length="17.50" friendlyPos="1"/>
    </busStop>
    <busStop id="1668497956" name="S Hackescher Markt" lane="153537614#13_0" startPos="20.51" endPos="41.23" friendlyPos="true" lines="M1">
        <access lane="1071210926#6_0" pos="8.17" length="12.53" friendlyPos="1"/>
        <access lane="46140376#1_0" pos="7.44" length="4.20" friendlyPos="1"/>
        <access lane="59286500#4_0" pos="0.00" length="17.64" friendlyPos="1"/>
        <access lane="83517332#1_0" pos="16.28" length="10.95" friendlyPos="1"/>
        <access lane="899946813#0_0" pos="0.00" length="15.22" friendlyPos="1"/>
    </busStop>
    <busStop id="1668685086" name="U Oranienburger Tor" lane="154321040#8_0" startPos="0.00" endPos="22.06" friendlyPos="true" lines="M5 M1">
        <access lane="1020077809_0" pos="27.94" length="11.61" friendlyPos="1"/>
        <access lane="318915602#3_0" pos="7.76" length="13.44" friendlyPos="1"/>
        <access lane="438607993#2_0" pos="0.00" length="15.39" friendlyPos="1"/>
        <access lane="438607993#3_0" pos="0.00" length="15.94" friendlyPos="1"/>
        <access lane="442577418_0" pos="0.20" length="12.50" friendlyPos="1"/>
    </busStop>
    <busStop id="1668717159" name="S Oranienburger Straße" lane="143891040#1_0" startPos="237.58" endPos="262.58" friendlyPos="true" lines="M1">
        <access lane="-4396823_0" pos="165.73" length="0.44" friendlyPos="1"/>
        <access lane="4396823_0" pos="4.43" length="4.36" friendlyPos="1"/>
        <access lane="461165666_0" pos="0.00" length="14.02" friendlyPos="1"/>
        <access lane="461165667_0" pos="0.00" length="17.61" friendlyPos="1"/>
        <access lane="940764589_0" pos="337.80" length="17.63" friendlyPos="1"/>
    </busStop>
    <busStop id="1673526976" name="Georgenstraße/Am Kupfergraben" lane="167272512#2_0" startPos="68.07" endPos="80.57" friendlyPos="true" lines="12 M1">
        <access lane="1088748335#4_0" pos="79.39" length="12.98" friendlyPos="1"/>
        <access lane="4610476#2_0" pos="4.60" length="6.20" friendlyPos="1"/>
        <access lane="4610476#3_0" pos="0.00" length="6.17" friendlyPos="1"/>
        <access lane="463829474#0_0" pos="0.20" length="4.05" friendlyPos="1"/>
        <access lane="463829474#1_0" pos="0.00" length="2.34" friendlyPos="1"/>
    </busStop>
    <busStop id="1745157971" name="Hackescher Markt" lane="32590649_0" startPos="121.90" endPos="321.90" friendlyPos="true" lines="S5 S7 S3 S9">
        <access lane="275008387#1_0" pos="26.06" length="8.48" friendlyPos="1"/>
        <access lane="377110615_0" pos="4.85" length="9.96" friendlyPos="1"/>
        <access lane="377110617_0" pos="0.00" length="13.04" friendlyPos="1"/>
        <access lane="377110622#2_0" pos="0.20" length="9.88" friendlyPos="1"/>
        <access lane="377110622#3_0" pos="0.07" length="6.43" friendlyPos="1"/>
    </busStop>
    <busStop id="1769645503" name="Oranienburger Straße" lane="459344271_0" startPos="558.64" endPos="758.64" friendlyPos="true" lines="S1 S2 S25 S26">
        <access lane="-165415464#1_0" pos="52.73" length="13.63" friendlyPos="1"/>
        <access lane="1095407477#5_0" pos="61.91" length="2.41" friendlyPos="1"/>
        <access lane="165415452#1_0" pos="11.62" length="11.51" friendlyPos="1"/>
        <access lane="165415454#0_0" pos="0.85" length="1.51" friendlyPos="1"/>
        <access lane="398956073_0" pos="6.26" length="7.99" friendlyPos="1"/>
    </busStop>
    <busStop id="1789092673" name="U Alexanderplatz" lane="317013528#0_0" startPos="79.15" endPos="104.15" friendlyPos="true" lines="M4 M5 M6">
        <access lane="272795502#0_0" pos="0.00" length="71.20" friendlyPos="1"/>
        <access lane="346206362#2_0" pos="3.22" length="132.22" friendlyPos="1"/>
        <access lane="346206381_0" pos="84.73" length="63.80" friendlyPos="1"/>
        <access lane="346212656#0_0" pos="18.42" length="41.30" friendlyPos="1"/>
        <access lane="346212656#2_0" pos="1.49" length="37.57" friendlyPos="1"/>
    </busStop>
    <busStop id="1823298700" name="S+U Friedrichstraße" lane="195411594#1_0" startPos="43.28" endPos="68.28" friendlyPos="true">
        <access lane="175885742_0" pos="4.80" length="16.69" friendlyPos="1"/>
        <access lane="43185731_0" pos="0.00" length="14.29" friendlyPos="1"/>
        <access lane="465376241_0" pos="0.00" length="15.08" friendlyPos="1"/>
        <access lane="70163730#0_0" pos="20.69" length="17.69" friendlyPos="1"/>
        <access lane="70163730#1_0" pos="0.00" length="14.36" friendlyPos="1"/>
    </busStop>
    <busStop id="1827996414" name="Spandauer Straße/Marienkirche" lane="72157174#1_0" startPos="28.44" endPos="35.94" friendlyPos="true" lines="100 200 N5 N8 N40 N2"/>
    <busStop id="1827996417" name="Spandauer Straße/Marienkirche" lane="195401013#2_0" startPos="29.15" endPos="44.15" friendlyPos="true" lines="N60 100 200 N65 N2 N5 N8 N40"/>
    <busStop id="1840333892" name="S+U Alexanderplatz/Memhardstraße" lane="1053166659#6_0" startPos="53.35" endPos="78.35" friendlyPos="true" lines="M2">
        <access lane="112128419#1_0" pos="55.22" length="16.20" friendlyPos="1"/>
        <access lane="171829092_0" pos="5.25" length="11.02" friendlyPos="1"/>
        <access lane="171829093_0" pos="5.59" length="7.82" friendlyPos="1"/>
        <access lane="171829099#1_0" pos="0.20" length="20.12" friendlyPos="1"/>
        <access lane="171829099#2_0" pos="0.20" length="19.81" friendlyPos="1"/>
    </busStop>
    <busStop id="1860777041" name="S+U Alexanderplatz/Gontardstraße" lane="150394034#2_0" startPos="41.61" endPos="59.90" friendlyPos="true" lines="M4 M5 M6">
        <access lane="169195791#1_0" pos="3.55" length="13.83" friendlyPos="1"/>
        <access lane="169230291#1_0" pos="14.24" length="14.26" friendlyPos="1"/>
        <access lane="169230291#2_0" pos="2.92" length="7.88" friendlyPos="1"/>
        <access lane="175499833#0_0" pos="0.20" length="9.36" friendlyPos="1"/>
        <access lane="175499833#2_0" pos="0.00" length="13.59" friendlyPos="1"/>
    </busStop>
    <busStop id="1862699772" name="S Oranienburger Straße" lane="154321040#6_0" startPos="10.16" endPos="35.16" friendlyPos="true" lines="M5 M1">
        <access lane="-4396823_0" pos="167.42" length="4.42" friendlyPos="1"/>
        <access lane="1095407475#1_0" pos="155.78" length="17.13" friendlyPos="1"/>
        <access lane="4396823_0" pos="2.74" length="0.38" friendlyPos="1"/>
        <access lane="461165666_0" pos="0.00" length="16.27" friendlyPos="1"/>
        <access lane="461165667_0" pos="0.00" length="12.92" friendlyPos="1"/>
    </busStop>
    <busStop id="1930939368" name="Friedrichstraße" lane="459344271_0" startPos="558.64" endPos="758.64" friendlyPos="true" lines="S1 S2 S25 S26">
        <access lane="254523879_0" pos="5.02" length="12.30" friendlyPos="1"/>
        <access lane="254523892#1_0" pos="3.73" length="8.00" friendlyPos="1"/>
        <access lane="335043668#1_0" pos="3.40" length="2.85" friendlyPos="1"/>
        <access lane="335576650#0_0" pos="6.24" length="10.81" friendlyPos="1"/>
        <access lane="440946436#2_0" pos="2.64" length="9.06" friendlyPos="1"/>
    </busStop>
    <busStop id="2094266775" name="Alexanderplatz" lane="381201610_0" startPos="1153.49" endPos="1353.49" friendlyPos="true" lines="U8">
        <access lane="272780741_0" pos="0.00" length="16.83" friendlyPos="1"/>
        <access lane="272780751#0_0" pos="0.00" length="14.95" friendlyPos="1"/>
        <access lane="272780756#0_0" pos="0.00" length="11.88" friendlyPos="1"/>
        <access lane="483624524_0" pos="0.00" length="13.57" friendlyPos="1"/>
        <access lane="687966677#3_0" pos="13.47" length="2.73" friendlyPos="1"/>
    </busStop>
    <busStop id="2094266776" name="Alexanderplatz" lane="4699210#4_0" startPos="0.00" endPos="131.33" friendlyPos="true" lines="U5">
        <access lane="272795482_0" pos="0.00" length="90.29" friendlyPos="1"/>
        <access lane="272795502#0_0" pos="0.00" length="16.40" friendlyPos="1"/>
        <access lane="346206381_0" pos="70.43" length="64.73" friendlyPos="1"/>
        <access lane="346212656#0_0" pos="17.13" length="17.87" friendlyPos="1"/>
        <access lane="346212656#2_0" pos="18.05" length="21.13" friendlyPos="1"/>
    </busStop>
    <busStop id="2094266777" name="Alexanderplatz" lane="199425808_0" startPos="15.05" endPos="115.05" friendlyPos="true" lines="U5">
        <access lane="272780747#1_0" pos="2.13" length="8.05" friendlyPos="1"/>
        <access lane="272780750#0_0" pos="0.00" length="12.60" friendlyPos="1"/>
        <access lane="272795502#1_0" pos="6.82" length="3.30" friendlyPos="1"/>
        <access lane="346206377#2_0" pos="0.20" length="11.76" friendlyPos="1"/>
        <access lane="346212656#3_0" pos="5.32" length="3.87" friendlyPos="1"/>
    </busStop>
    <busStop id="2094266781" name="Klosterstraße" lane="384294420_0" startPos="428.70" endPos="628.70" friendlyPos="true">
        <access lane="-4612970#0_0" pos="0.00" length="9.47" friendlyPos="1"/>
        <access lane="-4612970#1_0" pos="0.00" length="5.21" friendlyPos="1"/>
        <access lane="313323170#3_0" pos="23.97" length="11.21" friendlyPos="1"/>
        <access lane="4612970#0_0" pos="60.99" length="7.45" friendlyPos="1"/>
        <access lane="4612970#1_0" pos="0.35" length="1.53" friendlyPos="1"/>
    </busStop>
    <busStop id="2094266782" name="Rosa-Luxemburg-Platz" lane="200422335#0_0" startPos="462.07" endPos="662.07" friendlyPos="true">
        <access lane="1071049477#6_0" pos="25.15" length="6.42" friendlyPos="1"/>
        <access lane="1071049477#7_0" pos="0.00" length="5.44" friendlyPos="1"/>
        <access lane="132333642_0" pos="17.90" length="8.85" friendlyPos="1"/>
        <access lane="369223460#2_0" pos="43.14" length="12.89" friendlyPos="1"/>
        <access lane="369223461#0_0" pos="17.88" length="3.82" friendlyPos="1"/>
    </busStop>
    <busStop id="2094266983" name="Alexanderplatz" lane="438860779_0" startPos="5.19" endPos="205.19" friendlyPos="true" lines="U8">
        <access lane="272780751#0_0" pos="0.20" length="16.19" friendlyPos="1"/>
        <access lane="272780751#1_0" pos="0.20" length="14.87" friendlyPos="1"/>
        <access lane="272780756#1_0" pos="7.64" length="3.66" friendlyPos="1"/>
        <access lane="346229513_0" pos="0.05" length="15.40" friendlyPos="1"/>
        <access lane="483624525_0" pos="0.34" length="12.96" friendlyPos="1"/>
    </busStop>
    <busStop id="2175753204" name="Am Kupfergraben" lane="144014228#2_0" startPos="30.36" endPos="50.08" friendlyPos="true" lines="12">
        <access lane="-330840136#1_0" pos="1.08" length="12.15" friendlyPos="1"/>
        <access lane="-410310755#7_0" pos="0.00" length="16.37" friendlyPos="1"/>
        <access lane="1119838636#1_0" pos="0.00" length="11.87" friendlyPos="1"/>
        <access lane="330840136#1_0" pos="0.00" length="15.16" friendlyPos="1"/>
        <access lane="340498976#3_0" pos="36.12" length="10.51" friendlyPos="1"/>
    </busStop>
    <busStop id="244486083" name="S+U Alexanderplatz/Dircksenstraße" lane="148458497_0" startPos="44.33" endPos="59.74" friendlyPos="true">
        <access lane="199434277_0" pos="5.75" length="15.06" friendlyPos="1"/>
        <access lane="483624526_0" pos="1.54" length="11.13" friendlyPos="1"/>
        <access lane="483624527_0" pos="0.00" length="11.89" friendlyPos="1"/>
        <access lane="483624528_0" pos="3.10" length="15.13" friendlyPos="1"/>
        <access lane="687966677#2_0" pos="10.86" length="15.96" friendlyPos="1"/>
    </busStop>
    <busStop id="244487457" name="Hannoversche Straße" lane="11482920#2_0" startPos="61.06" endPos="81.93" friendlyPos="true" lines="12">
        <access lane="1068129615#1_0" pos="0.20" length="13.11" friendlyPos="1"/>
        <access lane="1068129615#2_0" pos="0.20" length="12.67" friendlyPos="1"/>
        <access lane="1069677816#1_0" pos="3.00" length="21.68" friendlyPos="1"/>
        <access lane="504171784_0" pos="0.20" length="10.05" friendlyPos="1"/>
        <access lane="553222318#0_0" pos="0.00" length="20.60" friendlyPos="1"/>
    </busStop>
    <busStop id="247600965" name="S+U Friedrichstraße" lane="22820560#2_0" startPos="37.19" endPos="62.19" friendlyPos="true">
        <access lane="175885743_0" pos="4.47" length="26.10" friendlyPos="1"/>
        <access lane="175885745_0" pos="4.72" length="26.59" friendlyPos="1"/>
        <access lane="175885747#1_0" pos="0.20" length="36.49" friendlyPos="1"/>
        <access lane="465376241_0" pos="28.05" length="18.90" friendlyPos="1"/>
        <access lane="465376242_0" pos="47.38" length="15.05" friendlyPos="1"/>
    </busStop>
    <busStop id="247603398" name="Am Kupfergraben" lane="144014230#3_0" startPos="35.92" endPos="60.92" friendlyPos="true" lines="M1">
        <access lane="-132460632#0_0" pos="25.90" length="35.12" friendlyPos="1"/>
        <access lane="1119837993#0_0" pos="43.80" length="0.88" friendlyPos="1"/>
        <access lane="131765141#1_0" pos="0.00" length="30.48" friendlyPos="1"/>
        <access lane="463829467_0" pos="2.62" length="21.25" friendlyPos="1"/>
        <access lane="463829476#0_0" pos="0.00" length="32.99" friendlyPos="1"/>
    </busStop>
    <busStop id="253846340" name="Brandenburger Tor" lane="421618230_0" startPos="0.00" endPos="144.66" friendlyPos="true" lines="U5">
        <access lane="317859982#4_0" pos="73.02" length="24.54" friendlyPos="1"/>
        <access lane="530085625#0_0" pos="32.61" length="3.05" friendlyPos="1"/>
        <access lane="915958593#4_0" pos="8.82" length="16.30" friendlyPos="1"/>
        <access lane="915958607#1_0" pos="7.35" length="26.07" friendlyPos="1"/>
        <access lane="915958607#2_0" pos="0.50" length="22.36" friendlyPos="1"/>
    </busStop>
    <busStop id="2603331683" name="Berlin Friedrichstraße" lane="25946666#2_0" startPos="0.00" endPos="137.35" friendlyPos="true" lines="RE8 RE2 RE1 RE7 RB14">
        <access lane="254523901#1_0" pos="18.65" length="5.45" friendlyPos="1"/>
        <access lane="274524361#0_0" pos="0.00" length="22.86" friendlyPos="1"/>
        <access lane="274524381#0_0" pos="2.96" length="23.86" friendlyPos="1"/>
        <access lane="274524381#1_0" pos="2.42" length="20.29" friendlyPos="1"/>
        <access lane="335043665#0_0" pos="0.00" length="19.52" friendlyPos="1"/>
    </busStop>
    <busStop id="2603331695" name="Friedrichstraße" lane="25946685#2_0" startPos="0.00" endPos="121.85" friendlyPos="true" lines="S5 S7 S3 S9">
        <access lane="254523876_0" pos="0.00" length="18.49" friendlyPos="1"/>
        <access lane="254523886_0" pos="0.00" length="19.96" friendlyPos="1"/>