<?xml version="1.0" encoding="UTF-8"?>

<!-- generated on 2022-12-20 19:18:13.469816 by $Id: ptlines2flows.py v1_3_1+0313-ccb31df3eb jakob.erdmann@dlr.de 2019-09-02 13:26:32 +0200 $ v1_14_1+0000-f654d7b963e
  options: 
-->

<routes xmlns:xsi="http://www.w3.org/2001/XMLSchema-instance" xsi:noNamespaceSchemaLocation="http://sumo.dlr.de/xsd/routes_file.xsd">
    <vType id="pt_bus" vClass="bus"/>
    <vType id="pt_tram" vClass="tram"/>
    <vType id="pt_train" vClass="rail"/>
    <vType id="pt_subway" vClass="rail_urban"/>
    <vType id="pt_light_rail" vClass="rail_urban"/>
    <vType id="pt_monorail" vClass="rail"/>
    <vType id="pt_trolleybus" vClass="bus"/>
    <vType id="pt_minibus" vClass="bus"/>
    <vType id="pt_share_taxi" vClass="taxi"/>
    <vType id="pt_aerialway" vClass="bus"/>
    <vType id="pt_ferry" vClass="ship"/>
    <route id="pt_bus_265:0" edges="755551647 755551646#1 755551646#2" >
        <stop busStop="3867910423" duration="20" until="52.0"/> <!-- Neumannsgasse -->
    </route>
    <route id="pt_tram_M5:1" color="204,153,51" edges="291670890#2" >
        <stop busStop="2951553387" duration="20" until="41.0"/> <!-- Invalidenpark -->
    </route>
    <route id="pt_tram_M8:0" color="255,102,51" edges="144529199#0" >
        <stop busStop="2951367727" duration="20" until="42.0"/> <!-- Invalidenpark -->
    </route>
    <route id="pt_tram_M8:1" color="255,102,51" edges="291670890#2" >
        <stop busStop="2951553387" duration="20" until="73.0"/> <!-- Invalidenpark -->
    </route>
    <route id="pt_tram_M2:2" color="51,255,51" edges="-803941113 -1051100387#0 -148458495 -148452597#5 -148452597#4 -148452597#3 -148452597#2 158785194#2 4791000#0 4791000#1 4791000#7" >
        <stop busStop="-1615531689" duration="20" until="37.0"/> <!-- S+U Alexanderplatz/Dircksenstraße -->
        <stop busStop="30732068" duration="20" until="139.0"/> <!-- S+U Alexanderplatz/Memhardstraße -->
    </route>
    <route id="pt_tram_M10:1" color="16,132,73" edges="144529199#0 144529199#3" >
        <stop busStop="2951367727" duration="20" until="42.0"/> <!-- Invalidenpark -->
    </route>
    <route id="pt_light_rail_S1:1" color="212,116,174" edges="459344271" >
        <stop busStop="322796388" duration="20" until="72.0"/> <!-- Brandenburger Tor -->
        <stop busStop="1930939368" duration="20" until="103.0"/> <!-- Friedrichstraße -->
        <stop busStop="1769645503" duration="20" until="134.0"/> <!-- Oranienburger Straße -->
    </route>
    <route id="pt_tram_M2:0" color="51,255,51" edges="331114772#0 1053166659#6 1053166659#7 148452597#0 148452597#1 148452597#2 148452597#3 148452597#4 148452597#5 148458495 1051100387#0 1051100387#1" >
        <stop busStop="1840333892" duration="20" until="99.0"/> <!-- S+U Alexanderplatz/Memhardstraße -->
        <stop busStop="1615531689" duration="20" until="189.0"/> <!-- S+U Alexanderplatz/Dircksenstraße -->
    </route>
    <route id="pt_tram_M10:0" color="16,132,73" edges="291670890#0 291670890#1 291670890#2" >
        <stop busStop="2951553387" duration="20" until="73.0"/> <!-- Invalidenpark -->
    </route>
    <route id="pt_light_rail_S1:0" color="212,116,174" edges="109444375#0 109444375#1 109444375#2 459344270#1" >
        <stop busStop="30353449" duration="20" until="66.0"/> <!-- Oranienburger Straße -->
        <stop busStop="474368351" duration="20" until="97.0"/> <!-- Friedrichstraße -->
        <stop busStop="4946539237" duration="20" until="128.0"/> <!-- Brandenburger Tor -->
    </route>
    <route id="pt_bus_245:0" color="149,39,110" edges="39350082#4" >
        <stop busStop="6287386721" duration="20" until="33.0"/> <!-- Robert-Koch-Platz -->
    </route>
    <route id="pt_tram_M2:1" color="51,255,51" edges="331114772#0 1053166659#6 1053166659#7 148452597#0 148452597#1 148452597#2 148452597#3 148452597#4 148452597#5 148458495 1051100387#0 1051100387#1" >
        <stop busStop="1840333892" duration="20" until="131.0"/> <!-- S+U Alexanderplatz/Memhardstraße -->
        <stop busStop="1615531689" duration="20" until="223.0"/> <!-- S+U Alexanderplatz/Dircksenstraße -->
    </route>
    <route id="pt_train_RE8:1" color="129,109,166" edges="372499091#0 372499091#1 386821329 25386365#1 442921387#0 442921387#1 25946656#1 25946657#1 25946673#1 25946674#1 25946676 32590898#1 32590890#1 32590636#1 32572618#1" >
        <stop busStop="29805120" duration="20" until="125.0"/> <!-- Berlin Friedrichstraße -->
        <stop busStop="2776873647" duration="20" until="286.0"/> <!-- Berlin Alexanderplatz -->
    </route>
    <route id="pt_train_RE8:0" color="129,109,166" edges="32572622#0 32572622#1 32590651#1 32590892#1 32590900#1 25946666#1 25946666#2 421021565#1 29384659#0 29384659#1 32591073#0 32591073#1" >
        <stop busStop="3419694885" duration="20" until="69.0"/> <!-- Berlin Alexanderplatz -->
        <stop busStop="2603331683" duration="20" until="250.0"/> <!-- Berlin Friedrichstraße -->
    </route>
    <route id="pt_bus_248:0" color="149,39,110" edges="1025851956 309156926#1 312357351#1 4611726#0 4611726#1 4611726#2 82649618 819027709#0 819027709#2 81112790 23851927 23851930 625843712" >
        <stop busStop="3867910417" duration="20" until="69.0"/> <!-- Jüdenstraße -->
    </route>
    <route id="pt_tram_M4:0" color="187,0,0" edges="317013528#0 317013528#2 317013528#3 150394034#0 150394034#1 150394034#2 150394034#3 1051100385#1 1051100385#3 1051100385#4 1051100386 150394035#1 150394035#5 150394035#6 1052827282#2 1052827282#4 10597134#1 421641064" >
        <stop busStop="1789092673" duration="20" until="49.0"/> <!-- U Alexanderplatz -->
        <stop busStop="1860777041" duration="20" until="155.0"/> <!-- S+U Alexanderplatz/Gontardstraße -->
        <stop busStop="4673135647" duration="20" until="251.0"/> <!-- Spandauer Straße/Marienkirche -->
        <stop busStop="1633759766" duration="20" until="340.0"/> <!-- S Hackescher Markt -->
    </route>
    <route id="pt_light_rail_S5:1" color="242,87,33" edges="32591077 4471823#1 4471823#2 196844848 -25946685#1 -195397542 25946681 4471817#1 32590645 32590647 72984377#1 32590438#1" >
        <stop busStop="27412232" duration="20" until="96.0"/> <!-- Friedrichstraße -->
        <stop busStop="27411240" duration="20" until="212.0"/> <!-- Hackescher Markt -->
        <stop busStop="27411231" duration="20" until="281.0"/> <!-- Alexanderplatz -->
    </route>
    <route id="pt_bus_248:1" color="149,39,110" edges="23851917#0 23851922#0 23851922#1 60333313 60333311#1 60333311#2 289966097#0 289966097#1 289666657 289966281 289830408 289830064" >
        <stop busStop="3352479220" duration="20" until="38.0"/> <!-- Fischerinsel -->
        <stop busStop="3867910416" duration="20" until="130.0"/> <!-- Jüdenstraße -->
    </route>
    <route id="pt_light_rail_S5:0" color="242,87,33" edges="32590433#0 32590433#1 32590648 32590649 25946685#1 25946685#2 29384521#1 29384522#1 29384522#2" >
        <stop busStop="574265352" duration="20" until="53.0"/> <!-- Alexanderplatz -->
        <stop busStop="1745157971" duration="20" until="136.0"/> <!-- Hackescher Markt -->
        <stop busStop="2603331695" duration="20" until="236.0"/> <!-- Friedrichstraße -->
    </route>
    <route id="pt_tram_M4:2" color="187,0,0" edges="803941122 23960874#1 23960874#4 144014234#1 144014234#4 167523653#0 167523653#1 167523653#2 22962554#1 150394036 1051100384 93628049#1 93628049#2 93628049#3 93628049#4 93628049#5" >
        <stop busStop="1633759760" duration="20" until="41.0"/> <!-- S Hackescher Markt -->
        <stop busStop="30731481" duration="20" until="93.0"/> <!-- Spandauer Straße/Marienkirche -->
        <stop busStop="30731508" duration="20" until="246.0"/> <!-- S+U Alexanderplatz/Gontardstraße -->
        <stop busStop="30731497" duration="20" until="333.0"/> <!-- U Alexanderplatz -->
    </route>
    <route id="pt_subway_U2:1" color="255,51,0" edges="384294423 177195505#2 177195505#3" >
        <stop busStop="29495029" duration="20" until="55.0"/> <!-- Klosterstraße -->
    </route>
    <route id="pt_bus_200:0" color="149,39,110" edges="24914141#0 24914141#5 318282850#0 318282850#2 112128419#1 112128419#2 415280722 195401013#2 171826985#2 -534588621#1 -534588621#0 606078071#0 61583423#1 -751595930 82654059#0 82654059#1 82654059#2 81112790 23851927 23851930 625843712" >
        <stop busStop="270720402" duration="20" until="42.0"/> <!-- Mollstraße/Prenzlauer Allee -->
        <stop busStop="4163212867" duration="20" until="139.0"/> <!-- S+U Alexanderplatz/Memhardstraße -->
        <stop busStop="1827996417" duration="20" until="207.0"/> <!-- Spandauer Straße/Marienkirche -->
        <stop busStop="-6744165042" duration="20" until="323.0"/> <!-- U Rotes Rathaus -->
    </route>
    <route id="pt_subway_U2:0" color="255,51,0" edges="200422335#0" >
        <stop busStop="2094266782" duration="20" until="69.0"/> <!-- Rosa-Luxemburg-Platz -->
    </route>
    <route id="pt_train_RB21:0" color="77,102,255" edges="25946661" >
        <stop busStop="366500582" duration="20" until="36.0"/> <!-- Berlin Friedrichstraße -->
    </route>
    <route id="pt_tram_M4:1" color="187,0,0" edges="317013528#0 317013528#2 317013528#3 150394034#0 150394034#1 150394034#2 150394034#3 1051100385#1 1051100385#3 1051100385#4 1051100386 150394035#1 150394035#5 150394035#6 1052827282#2 1052827282#4 10597134#1 421641064" >
        <stop busStop="1789092673" duration="20" until="81.0"/> <!-- U Alexanderplatz -->
        <stop busStop="1860777041" duration="20" until="187.0"/> <!-- S+U Alexanderplatz/Gontardstraße -->
        <stop busStop="4673135647" duration="20" until="289.0"/> <!-- Spandauer Straße/Marienkirche -->
        <stop busStop="1633759766" duration="20" until="393.0"/> <!-- S Hackescher Markt -->
    </route>
    <route id="pt_train_RE1:0" color="red" edges="372499091#0 372499091#1 386821329 25386365#1 442921387#0 442921387#1 25946656#1 25946657#1 25946673#1 25946674#1 25946676 32590898#1 32590890#1 32590636#1 32572618#1" >
        <stop busStop="29805120" duration="20" until="196.0"/> <!-- Berlin Friedrichstraße -->
        <stop busStop="2776873647" duration="20" until="395.0"/> <!-- Berlin Alexanderplatz -->
    </route>
    <route id="pt_light_rail_S7:0" color="128,112,183" edges="32590433#0 32590433#1 32590648 32590649 25946685#1 25946685#2 29384521#1 29384522#1 29384522#2" >
        <stop busStop="574265352" duration="20" until="86.0"/> <!-- Alexanderplatz -->
        <stop busStop="1745157971" duration="20" until="169.0"/> <!-- Hackescher Markt -->
        <stop busStop="2603331695" duration="20" until="270.0"/> <!-- Friedrichstraße -->
    </route>
    <route id="pt_bus_200:1" color="149,39,110" edges="23851917#0 23851922#0 23851922#1 60333313 606078070#0 606078065 1112054538 61583424#1 534588621#0 534588621#1 72157174#1 171826984#2 195401006 1113401735#1 139877314#1 783042668 1105526112#1" >
        <stop busStop="3352479220" duration="20" until="38.0"/> <!-- Fischerinsel -->
        <stop busStop="6682293818" duration="20" until="170.0"/> <!-- U Rotes Rathaus -->
        <stop busStop="1827996414" duration="20" until="273.0"/> <!-- Spandauer Straße/Marienkirche -->
        <stop busStop="270718978" duration="20" until="354.0"/> <!-- S+U Alexanderplatz/Memhardstraße -->
    </route>
    <route id="pt_train_RE2:0" color="255,230,0" edges="32572622#0 32572622#1 32590651#1 32590892#1 32590900#1 25946666#1 25946666#2 421021565#1 29384659#0 29384659#1 32591073#0 32591073#1" >
        <stop busStop="3419694885" duration="20" until="203.0"/> <!-- Berlin Alexanderplatz -->
        <stop busStop="2603331683" duration="20" until="384.0"/> <!-- Berlin Friedrichstraße -->
    </route>
    <route id="pt_light_rail_S2:1" color="1,138,71" edges="459344271" >
        <stop busStop="322796388" duration="20" until="72.0"/> <!-- Brandenburger Tor -->
        <stop busStop="1930939368" duration="20" until="103.0"/> <!-- Friedrichstraße -->
        <stop busStop="1769645503" duration="20" until="134.0"/> <!-- Oranienburger Straße -->
    </route>
    <route id="pt_tram_12:0" color="153,102,153" edges="11482920#0 11482920#2 11482920#5 6228154#0 6228154#2 30122986#0 30122986#1 168453605#0 168453605#1 168453605#2 168453605#3 168453605#4 168453605#5 388702047#0 388702047#1 388702047#2 388702047#3 388702047#4 93584120#2 93584120#3 93584120#4 93584120#5 195411601#4 195411601#3 195411601#2 195411601#0 22820560#2 22820560#1 22820560#0 93584121#1 144014237#1 144014237#2 144014228#0 144014228#1 144014228#2" >
        <stop busStop="244487457" duration="20" until="54.0"/> <!-- Hannoversche Straße -->
        <stop busStop="990017251" duration="20" until="135.0"/> <!-- U Oranienburger Tor -->
        <stop busStop="247600965" duration="20" until="226.0"/> <!-- S+U Friedrichstraße -->
        <stop busStop="3922258748" duration="20" until="356.0"/> <!-- Universitätsstraße -->
        <stop busStop="2175753204" duration="20" until="403.0"/> <!-- Am Kupfergraben -->
    </route>
    <route id="pt_tram_M4:3" color="187,0,0" edges="803941122 23960874#1 23960874#4 144014234#1 144014234#4 167523653#0 167523653#1 167523653#2 22962554#1 150394036 1051100384 93628049#1 93628049#2 93628049#3 93628049#4 93628049#5" >
        <stop busStop="1633759760" duration="20" until="73.0"/> <!-- S Hackescher Markt -->
        <stop busStop="30731481" duration="20" until="150.0"/> <!-- Spandauer Straße/Marienkirche -->
        <stop busStop="30731508" duration="20" until="319.0"/> <!-- S+U Alexanderplatz/Gontardstraße -->
        <stop busStop="30731497" duration="20" until="406.0"/> <!-- U Alexanderplatz -->
    </route>
    <route id="pt_light_rail_S2:0" color="1,138,71" edges="109444375#0 109444375#1 109444375#2 459344270#1" >
        <stop busStop="30353449" duration="20" until="66.0"/> <!-- Oranienburger Straße -->
        <stop busStop="474368351" duration="20" until="97.0"/> <!-- Friedrichstraße -->
        <stop busStop="4946539237" duration="20" until="128.0"/> <!-- Brandenburger Tor -->
    </route>
    <route id="pt_light_rail_S25:1" color="1,138,71" edges="459344271" >
        <stop busStop="322796388" duration="20" until="68.0"/> <!-- Brandenburger Tor -->
        <stop busStop="1930939368" duration="20" until="99.0"/> <!-- Friedrichstraße -->
        <stop busStop="1769645503" duration="20" until="130.0"/> <!-- Oranienburger Straße -->
    </route>
    <route id="pt_light_rail_S25:0" color="1,138,71" edges="109444375#0 109444375#1 109444375#2 459344270#1" >
        <stop busStop="30353449" duration="20" until="62.0"/> <!-- Oranienburger Straße -->
        <stop busStop="474368351" duration="20" until="93.0"/> <!-- Friedrichstraße -->
        <stop busStop="4946539237" duration="20" until="124.0"/> <!-- Brandenburger Tor -->
    </route>
    <route id="pt_tram_M2:3" color="51,255,51" edges="-803941113 -1051100387#0 -148458495 -148452597#5 -148452597#4 -148452597#3 -148452597#2 158785194#2 4791000#0 4791000#1 4791000#7" >
        <stop busStop="-1615531689" duration="20" until="37.0"/> <!-- S+U Alexanderplatz/Dircksenstraße -->
        <stop busStop="30732068" duration="20" until="133.0"/> <!-- S+U Alexanderplatz/Memhardstraße -->
    </route>
    <route id="pt_tram_M6:0" color="0,51,136" edges="317013528#0 317013528#2 317013528#3 150394034#0 150394034#1 150394034#2 150394034#3 1051100385#1 1051100385#3 1051100385#4 1051100386 150394035#1 150394035#5 150394035#6 1052827282#2 1052827282#4 10597134#1 421641064" >
        <stop busStop="1789092673" duration="20" until="98.0"/> <!-- U Alexanderplatz -->
        <stop busStop="1860777041" duration="20" until="204.0"/> <!-- S+U Alexanderplatz/Gontardstraße -->
        <stop busStop="4673135647" duration="20" until="331.0"/> <!-- Spandauer Straße/Marienkirche -->
        <stop busStop="1633759766" duration="20" until="416.0"/> <!-- S Hackescher Markt -->
    </route>
    <route id="pt_light_rail_S7:1" color="128,112,183" edges="32591077 4471823#1 4471823#2 196844848 -25946685#1 -195397542 25946681 4471817#1 32590645 32590647 72984377#1 32590438#1" >
        <stop busStop="27412232" duration="20" until="89.0"/> <!-- Friedrichstraße -->
        <stop busStop="27411240" duration="20" until="342.0"/> <!-- Hackescher Markt -->
        <stop busStop="27411231" duration="20" until="411.0"/> <!-- Alexanderplatz -->
    </route>
    <route id="pt_subway_U6:0" color="128,112,183" edges="387125526 295250353#1 295250353#2 295376548" >
        <stop busStop="8170794617" duration="20" until="49.0"/> <!-- Unter den Linden -->
        <stop busStop="3869306769" duration="20" until="116.0"/> <!-- Friedrichstraße -->
        <stop busStop="3043709616" duration="20" until="147.0"/> <!-- Oranienburger Tor -->
    </route>
    <route id="pt_tram_M6:1" color="0,51,136" edges="803941122 23960874#1 23960874#4 144014234#1 144014234#4 167523653#0 167523653#1 167523653#2 22962554#1 150394036 1051100384 93628049#1 93628049#2 93628049#3 93628049#4 93628049#5" >
        <stop busStop="1633759760" duration="20" until="87.0"/> <!-- S Hackescher Markt -->
        <stop busStop="30731481" duration="20" until="142.0"/> <!-- Spandauer Straße/Marienkirche -->
        <stop busStop="30731508" duration="20" until="333.0"/> <!-- S+U Alexanderplatz/Gontardstraße -->
        <stop busStop="30731497" duration="20" until="420.0"/> <!-- U Alexanderplatz -->
    </route>
    <route id="pt_subway_U8:1" color="5,90,153" edges="381201610" >
        <stop busStop="5227235608" duration="20" until="75.0"/> <!-- Rosenthaler Platz -->
        <stop busStop="4655287360" duration="20" until="142.0"/> <!-- Weinmeisterstraße -->
        <stop busStop="2094266775" duration="20" until="173.0"/> <!-- Alexanderplatz -->
    </route>
    <route id="pt_bus_265:1" edges="-755551646#0" >
        <stop busStop="-3867910422" duration="20" until="31.0"/> <!-- Neumannsgasse -->
    </route>
    <route id="pt_subway_U6:1" color="128,112,183" edges="378664954 335043673#0 335043673#1 335043673#2 387125527 295255789" >
        <stop busStop="29058100" duration="20" until="71.0"/> <!-- Oranienburger Tor -->
        <stop busStop="2792364395" duration="20" until="102.0"/> <!-- Friedrichstraße -->
        <stop busStop="8170769020" duration="20" until="189.0"/> <!-- Unter den Linden -->
    </route>
    <route id="pt_tram_12:1" color="153,102,153" edges="144014228#2 207364192#1 207364192#2 207364192#3 207364192#4 207364192#5 168254756#1 167272512#0 167272512#1 167272512#2 167272512#3 167272512#4 167272512#5 167272512#6 167272512#7 167272512#8 167272512#9 195411594#2 195411594#1 195411594#0 165409971#3 165409971#2 165409971#1 165409971#0 388702049#1 388702049#2 1044592562#0 1044592562#1 1044592562#2 1044592562#3 1044592562#4 167272531#0 167272531#1 167272531#2 167272531#3 167272531#4 167272531#5 167272531#6 167272531#7 167272531#8 167140669#0 167140669#1 167140669#2 167140669#3 167140669#4 1046153050 169953964#3 169953964#4 169953964#5" >
        <stop busStop="2175753204" duration="20" until="37.0"/> <!-- Am Kupfergraben -->
        <stop busStop="1673526976" duration="20" until="105.0"/> <!-- Georgenstraße/Am Kupfergraben -->
        <stop busStop="1823298700" duration="20" until="185.0"/> <!-- S+U Friedrichstraße -->
        <stop busStop="30731700" duration="20" until="354.0"/> <!-- U Oranienburger Tor -->
    </route>
    <route id="pt_subway_U8:0" color="5,90,153" edges="438860779" >
        <stop busStop="2094266983" duration="20" until="46.0"/> <!-- Alexanderplatz -->
        <stop busStop="4655287361" duration="20" until="95.0"/> <!-- Weinmeisterstraße -->
        <stop busStop="5227235607" duration="20" until="126.0"/> <!-- Rosenthaler Platz -->
        <stop busStop="29190909" duration="20" until="157.0"/> <!-- Bernauer Straße -->
    </route>
    <route id="pt_light_rail_S3:0" color="5,90,153" edges="32590433#0 32590433#1 32590648 32590649 25946685#1 25946685#2 29384521#1 -196844844 -4471823#1 -196844847 29384522#2" >
        <stop busStop="574265352" duration="20" until="53.0"/> <!-- Alexanderplatz -->
        <stop busStop="1745157971" duration="20" until="136.0"/> <!-- Hackescher Markt -->
        <stop busStop="2603331695" duration="20" until="236.0"/> <!-- Friedrichstraße -->
    </route>
    <route id="pt_bus_100:0" color="149,39,110" edges="112128419#2 415280722 195401013#2 171826985#2 24913519#1 24913519#2 541763975 202156995#0 202156995#1 4067932#0 4067932#1 541763974 61584187#0 61584187#1 15971197 4611699#0 4611699#1 169195795#0 169195795#1 169195795#4 169195795#5 169195795#6 169195795#7 1113726463 1077923225#0 882389494 340498988#0 188386313#1 188386313#2 1119935543 1119936840#1 24913304#1 24913304#2 530085625#0 -108031933#1 -437325055#2 -176273730#2 -405100404#1 -171484594#0" >
        <stop busStop="270727260" duration="20" until="31.0"/> <!-- S+U Alexanderplatz/Memhardstraße -->
        <stop busStop="4163212867" duration="20" until="62.0"/> <!-- S+U Alexanderplatz/Memhardstraße -->
        <stop busStop="1827996417" duration="20" until="117.0"/> <!-- Spandauer Straße/Marienkirche -->
        <stop busStop="3867910420" duration="20" until="274.0"/> <!-- U Museumsinsel -->
        <stop busStop="271296293" duration="20" until="346.0"/> <!-- Staatsoper -->
        <stop busStop="272408975" duration="20" until="435.0"/> <!-- U Unter den Linden -->
        <stop busStop="271373068" duration="20" until="503.0"/> <!-- S+U Brandenburger Tor -->
    </route>
    <route id="pt_light_rail_S2:2" color="1,138,71" edges="109444375#0 109444375#1 109444375#2 459344270#1" >
        <stop busStop="30353449" duration="20" until="92.0"/> <!-- Oranienburger Straße -->
        <stop busStop="474368351" duration="20" until="123.0"/> <!-- Friedrichstraße -->
        <stop busStop="4946539237" duration="20" until="154.0"/> <!-- Brandenburger Tor -->
    </route>
    <route id="pt_bus_142:0" edges="319339413 -169717723#3 -169717723#2 32805741#1 1100903094#0 1100903094#2 169719829 1100903092 1100903093 1100903091#1 1100903090#0 1100903090#1 1100903089 1100903087#0 1100903087#1 176043799" >
        <stop busStop="-3918673878" duration="20" until="368.0"/> <!-- Hannoversche Straße -->
    </route>
    <route id="pt_train_RE1:1" color="red" edges="32572622#0 32572622#1 32590651#1 32590892#1 32590900#1 25946666#1 25946666#2 421021565#1 29384659#0 29384659#1 32591073#0 32591073#1" >
        <stop busStop="3419694885" duration="20" until="203.0"/> <!-- Berlin Alexanderplatz -->
        <stop busStop="2603331683" duration="20" until="384.0"/> <!-- Berlin Friedrichstraße -->
    </route>
    <route id="pt_bus_100:1" color="149,39,110" edges="171484594#0 171484594#1 68711084#0 437325055#1 108031933#0 24240246#1 24240246#2 24240246#3 236092221#0 236092221#1 236092221#2 236092221#3 342968607#1 461526152#0 1079495669#0 1079495669#2 340498982#0 340498982#1 340498982#4 340498982#5 251884680#0 251884680#1 251884680#2 339201217 54048862#1 54048862#3 831694400 23013165#1 23013165#2 202156994#0 72157174#1 171826984#2 195401006 1113401735#1" >
        <stop busStop="3862767510" duration="20" until="49.0"/> <!-- Reichstag/Bundestag -->
        <stop busStop="271388393" duration="20" until="200.0"/> <!-- S+U Brandenburger Tor -->
        <stop busStop="3869306771" duration="20" until="317.0"/> <!-- U Unter den Linden -->
        <stop busStop="3870475228" duration="20" until="381.0"/> <!-- Staatsoper -->
        <stop busStop="3867910421" duration="20" until="476.0"/> <!-- U Museumsinsel -->
        <stop busStop="1827996414" duration="20" until="541.0"/> <!-- Spandauer Straße/Marienkirche -->
        <stop busStop="270718978" duration="20" until="649.0"/> <!-- S+U Alexanderplatz/Memhardstraße -->
    </route>
    <route id="pt_subway_U5:1" color="125,83,61" edges="199425808 -199425795#3 -199425795#2 -199425795#1 -199425795#0 942849697 71326270 23439780 421618230" >
        <stop busStop="2094266777" duration="20" until="34.0"/> <!-- Alexanderplatz -->
        <stop busStop="8196661137" duration="20" until="101.0"/> <!-- Rotes Rathaus -->
        <stop busStop="7974928190" duration="20" until="202.0"/> <!-- Museumsinsel -->
        <stop busStop="8090274121" duration="20" until="292.0"/> <!-- Unter den Linden -->
        <stop busStop="253846340" duration="20" until="360.0"/> <!-- Brandenburger Tor -->
    </route>
    <route id="pt_subway_U5:0" color="125,83,61" edges="360588975 248099627 942849696 942849695 248099628 4699210#1 4699210#2 4699210#3 4699210#4" >
        <stop busStop="7057285550" duration="20" until="78.0"/> <!-- Brandenburger Tor -->
        <stop busStop="8087330616" duration="20" until="153.0"/> <!-- Unter den Linden -->
        <stop busStop="7974955393" duration="20" until="247.0"/> <!-- Museumsinsel -->
        <stop busStop="8196661136" duration="20" until="336.0"/> <!-- Rotes Rathaus -->
        <stop busStop="2094266776" duration="20" until="402.0"/> <!-- Alexanderplatz -->
    </route>
    <route id="pt_light_rail_S9:0" color="154,48,82" edges="32590433#0 32590433#1 32590648 32590649 25946685#1 25946685#2 29384521#1 -196844844 -4471823#1 -196844847 29384522#2" >
        <stop busStop="574265352" duration="20" until="86.0"/> <!-- Alexanderplatz -->
        <stop busStop="1745157971" duration="20" until="169.0"/> <!-- Hackescher Markt -->
        <stop busStop="2603331695" duration="20" until="270.0"/> <!-- Friedrichstraße -->
    </route>
    <route id="pt_train_RE2:1" color="255,230,0" edges="372499091#0 372499091#1 386821329 25386365#1 442921387#0 442921387#1 25946656#1 25946657#1 25946673#1 25946674#1 25946676 32590898#1 32590890#1 32590636#1 32572618#1" >
        <stop busStop="29805120" duration="20" until="125.0"/> <!-- Berlin Friedrichstraße -->
        <stop busStop="2776873647" duration="20" until="286.0"/> <!-- Berlin Alexanderplatz -->
    </route>
    <route id="pt_light_rail_S3:1" color="5,90,153" edges="32591077 4471823#1 4471823#2 196844848 -25946685#1 -195397542 25946681 4471817#1 32590645 32590647 72984377#1 32590438#1" >
        <stop busStop="27412232" duration="20" until="96.0"/> <!-- Friedrichstraße -->
        <stop busStop="27411240" duration="20" until="308.0"/> <!-- Hackescher Markt -->
        <stop busStop="27411231" duration="20" until="377.0"/> <!-- Alexanderplatz -->
    </route>
    <route id="pt_tram_M5:3" color="204,153,51" edges="803941122 23960874#1 23960874#4 144014234#1 144014234#4 167523653#0 167523653#1 167523653#2 22962554#1 150394036 1051100384 93628049#1 93628049#2 93628049#3 93628049#4 93628049#5" >
        <stop busStop="1633759760" duration="20" until="41.0"/> <!-- S Hackescher Markt -->
        <stop busStop="30731481" duration="20" until="93.0"/> <!-- Spandauer Straße/Marienkirche -->
        <stop busStop="30731508" duration="20" until="246.0"/> <!-- S+U Alexanderplatz/Gontardstraße -->
        <stop busStop="30731497" duration="20" until="333.0"/> <!-- U Alexanderplatz -->
    </route>
    <route id="pt_tram_M5:2" color="204,153,51" edges="317013528#0 317013528#2 317013528#3 150394034#0 150394034#1 150394034#2 150394034#3 1051100385#1 1051100385#3 1051100385#4 1051100386 150394035#1 150394035#5 150394035#6 1052827282#2 1052827282#4 10597134#1 421641064" >
        <stop busStop="1789092673" duration="20" until="49.0"/> <!-- U Alexanderplatz -->
        <stop busStop="1860777041" duration="20" until="155.0"/> <!-- S+U Alexanderplatz/Gontardstraße -->
        <stop busStop="4673135647" duration="20" until="251.0"/> <!-- Spandauer Straße/Marienkirche -->
        <stop busStop="1633759766" duration="20" until="373.0"/> <!-- S Hackescher Markt -->
    </route>
    <route id="pt_train_RE7:0" color="38,153,0" edges="32572622#0 32572622#1 32590651#1 32590892#1 32590900#1 25946666#1 25946666#2 421021565#1 29384659#0 29384659#1 32591073#0 32591073#1" >
        <stop busStop="3419694885" duration="20" until="144.0"/> <!-- Berlin Alexanderplatz -->
        <stop busStop="2603331683" duration="20" until="325.0"/> <!-- Berlin Friedrichstraße -->
    </route>
    <route id="pt_train_RB14:0" color="153,0,255" edges="372499091#0 372499091#1 386821329 25386365#1 442921387#0 442921387#1 25946656#1 25946657#1 25946673#1 25946674#1 25946676 32590898#1 32590890#1 32590636#1 32572618#1" >
        <stop busStop="29805120" duration="20" until="125.0"/> <!-- Berlin Friedrichstraße -->
        <stop busStop="2776873647" duration="20" until="326.0"/> <!-- Berlin Alexanderplatz -->
    </route>
    <route id="pt_light_rail_S9:1" color="154,48,82" edges="32591077 4471823#1 4471823#2 196844848 -25946685#1 -195397542 25946681 4471817#1 32590645 32590647 72984377#1 32590438#1" >
        <stop busStop="27412232" duration="20" until="89.0"/> <!-- Friedrichstraße -->
        <stop busStop="27411240" duration="20" until="441.0"/> <!-- Hackescher Markt -->
        <stop busStop="27411231" duration="20" until="510.0"/> <!-- Alexanderplatz -->
    </route>
    <route id="pt_bus_245:1" color="149,39,110" edges="438496646#0 -671403217" >
        <stop busStop="-6287386721" duration="20" until="650.0"/> <!-- Robert-Koch-Platz -->
    </route>
    <route id="pt_tram_M1:2" color="238,102,0" edges="1053166655 153537614#1 153537614#2 153537614#3 153537614#4 153537614#5 153537614#6 153537614#7 153537614#8 153537614#9 153537614#10 153537614#11 153537614#12 153537614#13 153522303#0 153522303#2 46140393 101694131#0 101699679#2 101699679#3 101699679#4 154321040#1 154321040#2 154321040#3 154321040#4 154321040#5 154321040#6 154321040#7 154321040#8 1053166658#1 167140670#0 167140670#1 167140670#3 167140670#4 30122986#0 30122986#1 168453605#0 168453605#1 168453605#2 168453605#3 168453605#4 168453605#5 388702047#0 388702047#1 388702047#2 388702047#3 388702047#4 93584120#2 93584120#3 93584120#4 93584120#5 195411601#4 195411601#3 195411601#2 195411601#0 22820560#2 22820560#1 22820560#0 93584121#1 144014237#1 144014237#2 144014228#0 144014228#1 144014228#2 207364192#1 207364192#2 144014230#1 144014230#2 144014230#3" >
        <stop busStop="1668497956" duration="20" until="146.0"/> <!-- S Hackescher Markt -->