<?xml version="1.0" encoding="UTF-8"?>

<!-- generated on 2022-12-21 11:39:28 by Eclipse SUMO duarouter Version 1.14.1
<configuration xmlns:xsi="http://www.w3.org/2001/XMLSchema-instance" xsi:noNamespaceSchemaLocation="http://sumo.dlr.de/xsd/duarouterConfiguration.xsd">

    <input>
        <net-file value="osm.net.xml"/>
        <route-files value="trips_file.trips.rou.xml"/>
    </input>

    <output>
        <output-file value="route_file.rou.xml"/>
    </output>

    <report>
        <no-warnings value="true"/>
        <ignore-errors value="true"/>
    </report>

</configuration>
-->

<routes xmlns:xsi="http://www.w3.org/2001/XMLSchema-instance" xsi:noNamespaceSchemaLocation="http://sumo.dlr.de/xsd/routes_file.xsd">
    <vType id="default" vClass="passenger" color="red"/>
    <vehicle id="carIn386:1" type="default" depart="0.00" departPos="1.00" arrivalPos="18.33" arrivalSpeed="0.00">
        <route edges="-1096883479#0 -105352753 -60333312#1 -35556702#2 -35556702#0 -176043807#14 -176043807#13 -176043807#11 -176043807#10 -176043807#9 -176043807#8 -176043807#7 -176043807#6 -176043807#5 -176043807#4 -176043807#0 -176043806#1 -176043806#0 -1100824590 -111251382#3 -111251382#2 541295978#1 1097921784#1 153698390#1 153698390#2 427637455 705182550 705182551 705182549 705182548"/>
    </vehicle>
    <vehicle id="carIn286:1" type="default" depart="84.00" departPos="1.00" arrivalPos="1.00" arrivalSpeed="0.00">
        <route edges="-1096883479#0"/>
    </vehicle>
    <vehicle id="h4106c1:1" type="default" depart="145.00" departPos="80.33" arrivalPos="1.00" arrivalSpeed="0.00">
        <route edges="4610374 168940071#2 168940071#3 168940071#4 42103020#0 42103020#2 111251382#1 111251382#3 1100889498 176043806#0 176043806#1 176043807#0 176043807#1 176043807#5 176043807#6 176043807#7 176043807#8 176043807#9 176043807#10 176043807#11 176043807#12 176043807#14 1102154082#0 1102154082#1 153698387#2 -76212441#0 -1096883480#0 -1096883479#0"/>
    </vehicle>
    <vType id="random" vClass="passenger" color="blue"/>
    <vehicle id="randUni22302:1" type="random" depart="148.00" departPos="1.75" arrivalPos="3.81" arrivalSpeed="0.00">
        <route edges="83517336#1 83517336#2 83517336#3 -15977422#1 -15977422#0 -195411605#1 -195411605#0 -195411606 -1119854969#0 -31313667#1 -31313667#0 -492340367#1 -492340367#0 -339201185 24243101 1114798610#0 1114798610#1 24243107#0 24243107#1 24243107#2 24243107#3 437325054#0 -437325048#1 -560370523 -437325047#5 51167934#1 51167934#2 51167934#3 51167934#4"/>
    </vehicle>
    <vehicle id="h356c1:1" type="default" depart="158.00" departPos="2.18" arrivalPos="1.00" arrivalSpeed="0.00">
        <route edges="-23852056#0 23852056#0 84575572#1 1098856715#1 -4296469#1 -268002743#2 -267542610#2 -267542610#1 -267542609#0 -4296467#2 -4296467#1 980542375#1 36689633#0 268002745#1 268002745#2 1102154070 318915601#1 318915601#2 1020077809 489068253 1102154074#1 465376252 1102154075 389705411 1102154076 374734389#0 374734389#1 374734389#3 111251382#1 111251382#3 1100889498 176043806#0 176043806#1 176043807#0 176043807#1 176043807#5 176043807#6 176043807#7 176043807#8 176043807#9 176043807#10 176043807#11 176043807#12 176043807#14 1102154082#0 1102154082#1 153698387#2 -76212441#0 -1096883480#0 -1096883479#0"/>
    </vehicle>
    <vehicle id="h2214c2:1" type="default" depart="167.00" departPos="33.61" arrivalPos="1.00" arrivalSpeed="0.00">
        <route edges="168942727#0 168942727#1 -62363402 -234463928#0 -1121012037#0 -234463931#0 -1110526068 -1102369940#1 -1102369940#0 77348147 156364570#0 156364570#1 156364570#2 156364556#1 202157002#1 24913519#1 24913519#2 541763975 202156995#0 202156995#1 4067932#0 4067932#1 541763974 61584187#0 61584187#1 15971197 4611699#0 4611699#1 169195795#0 169195795#1 169195795#4 169195795#5 169195795#6 169195795#7 1113726463 1077923225#0 882389494 340498988#0 188386313#1 188386313#2 1119935543 1119936840#1 24913304#1 24913304#2 530085625#0 -108031933#1 -437325055#2 -437325056#1 -4588211#1 -4588211#0 -25945966 -24234486 -4412886 153698415#0 153698415#1 -76212441#0 -1096883480#0 -1096883479#0"/>
    </vehicle>
    <vehicle id="carIn957:1" type="default" depart="203.00" departPos="1.00" arrivalPos="63.93" arrivalSpeed="0.00">
        <route edges="-1123106898 1123106516 158023913#1 158023913#3 22972195#2 465376239 465376255#2 190447767 190447766#1 4402228#0 465376254#0 -4610472#4 -4610472#2 -4610472#1 -4610472#0 -339201185 24243101 1114798610#0 1114798610#1 24243107#0 24243107#1 24243107#2 24243107#3 437325054#0 -437325048#1 -560370523 -437325047#5 225400578#1 225400578#2 225400578#3 -1121008013#0 -225400578#2"/>
    </vehicle>
    <vehicle id="carIn781:1" type="default" depart="204.00" departPos="1.00" arrivalPos="1.00" arrivalSpeed="0.00">
        <route edges="-1096883479#0 -105352753 -60333312#1 -35556702#2 -35556702#0 -176043807#14 -176043807#13 -176043807#11 -176043807#10 -176043807#9 -176043807#8 -176043807#7 -176043807#6 -176043807#5 -176043807#4 -176043807#0 -176043806#1 -176043806#0 -1100824590 -111251382#3 -111251382#2 541295978#1 1097921784#1 -541295974 6228081#0 -222328410 -465376254#2 -4402228#1 190447768#2 195411602#1 465376240#0 195411604 -1123106322#2 -158023913#1 -1123106898"/>
    </vehicle>
    <vehicle id="h4458c1:1" type="default" depart="211.00" departPos="73.44" arrivalPos="1.00" arrivalSpeed="0.00">
        <route edges="55741054 -55741054 -62363402 -234463928#0 -1121012037#0 -234463931#0 -1110526068 -1102369940#1 -1102369940#0 77348147 156364570#0 156364570#1 156364570#2 156364556#1 202157002#1 24913519#1 24913519#2 541763975 202156995#0 202156995#1 4067932#0 4067932#1 541763974 61584187#0 61584187#1 15971197 4611699#0 4611699#1 169195795#0 169195795#1 169195795#4 169195795#5 169195795#6 169195795#7 1113726463 1077923225#0 882389494 340498988#0 188386313#1 188386313#2 1119935543 1119936840#1 24913304#1 24913304#2 530085625#0 -108031933#1 -437325055#2 -437325056#1 -4588211#1 -4588211#0 -25945966 -24234486 -4412886 153698415#0 153698415#1 -76212441#0 -1096883480#0 -1096883479#0"/>
    </vehicle>
    <vehicle id="randUni59:1" type="random" depart="212.00" departPos="67.80" arrivalPos="4.95" arrivalSpeed="0.00">
        <route edges="24914141#0 24914141#5 318282850#0 318282850#2 112128419#1 112128419#2 415280722 195401013#2 171826985#2 24913519#1 24913519#2 541763975 202156995#0 202156995#1 4067932#0 4067932#1 541763974 61584187#0 61584187#1 15971197 4611699#0 4611699#1 251884680#0 251884680#1 -4611694#1 305153173 4611693#0 4611693#1 4611693#2 -831860725#2 734578686"/>
    </vehicle>
    <vehicle id="carIn909:1" type="default" depart="236.00" departPos="1.00" arrivalPos="33.33" arrivalSpeed="0.00">
        <route edges="-1096883479#0 1096883478#1 1096883479#3 1096883480#1 -1020977670#0 -153698415#0 4412886 24234486 25945965 4588211#0 4588211#1 437325056#0 437325055#1 108031933#0 24240246#1 24240246#2 24240246#3 236092221#0 236092221#1 236092221#2 236092221#3 342968607#1 461526152#0 1079495669#0 1079495669#2 340498982#0 340498982#1 340498982#4 340498982#5 251884680#0 251884680#1 251884680#2 339201217 54048862#1 54048862#3 831694400 23013165#1 23013165#2 202156994#0 4773465#1 4773465#2 490365295#0 -156364570#3 -156364570#1 -156364570#0 -77348147 25294728 1102369940#1 1110526068 234463931#0 234463931#1 1121012037#1 234463928#1 -62363402 -234463928#0 -1121012037#0 -234463931#0 -1110526068 -1102369940#1 -1102369940#0"/>
    </vehicle>
    <vehicle id="carIn171:1" type="default" depart="240.00" departPos="1.00" arrivalPos="46.86" arrivalSpeed="0.00">
        <route edges="-1123106898 1123106516 158023913#1 158023913#3 22972195#2 465376239 465376255#2 190447767 190447766#1 4402228#0 465376254#0 222328410 -6228081#1 541295974 30720544#0 30720544#1 42103020#0 42103020#2 478432725 35269774#0 35269774#2 35269774#3 35269774#4 318915602#3"/>
    </vehicle>
    <vehicle id="carIn596:1" type="default" depart="240.00" departPos="1.00" arrivalPos="1.00" arrivalSpeed="0.00">
        <route edges="-1123106898 930343901#0 930343901#1 930343901#2 24242892#0 24242892#1 -437325056#1 -4588211#1 -4588211#0 -25945966 -24234486 -4412886 153698415#0 153698415#1 -76212441#0 -1096883480#0 -1096883479#0"/>
    </vehicle>
    <vehicle id="carIn1552:1" type="default" depart="249.00" departPos="1.00" arrivalPos="30.88" arrivalSpeed="0.00">
        <route edges="-1096883479#0 -105352753 -60333312#1 -35556702#2 -35556702#0 -176043807#14 -176043807#13 -176043807#11 -176043807#10 -176043807#9 -176043807#8 -176043807#7 -176043807#6 -176043807#5 -176043807#4 -176043807#0 -176043806#1 -176043806#0 -1100824590 -111251382#3 -111251382#2 478432725 1102154080#1 6227658#1 6227658#2 437325054#0 -437325048#1 -560370523 -437325047#5 -437325047#3 -437325047#2 -437325047#0 1117432853 4610362#0 23852053#1 23852053#2 23852053#3"/>
    </vehicle>
    <vehicle id="h1759c1:1" type="default" depart="264.00" departPos="55.52" arrivalPos="11.96" arrivalSpeed="0.00">
        <route edges="1102154080#1 4610374 168940071#2 168940071#3 168940071#4 42103020#0 42103020#2 111251382#1 111251382#3 1100889498 176043806#0 176043806#1 176043807#0 844076875#0 844076875#1 844076875#2 844076875#3 -844076875#3 -844076875#2 -844076875#1 -844076875#0"/>
    </vehicle>
    <vehicle id="carIn1432:1" type="default" depart="266.00" departPos="1.00" arrivalPos="1.29" arrivalSpeed="0.00">
        <route edges="-1096883479#0 -105352753 -60333312#1 -35556702#2 -35556702#0 -176043807#14 -176043807#13 -176043807#11 -176043807#10 -176043807#9 -176043807#8 -176043807#7 -176043807#6 -176043807#5 -176043807#4 -176043807#0 -176043806#1 -176043806#0 -1100824590 -111251382#3 -111251382#2 478432725 1102154080#1 6227658#1 6227658#2 437325054#0 -437325048#1 -560370523 -437325047#5 -437325047#3 -437325047#2 -437325047#0 1117432853 4610362#0 4610362#1 30721662#1 1121011269#0 1121011269#1 23809670#1"/>
    </vehicle>
    <vehicle id="carIn1741:1" type="default" depart="271.00" departPos="1.00" arrivalPos="1.00" arrivalSpeed="0.00">
        <route edges="-1096883479#0"/>
    </vehicle>
    <vehicle id="carIn1496:1" type="default" depart="273.00" departPos="1.00" arrivalPos="4.36" arrivalSpeed="0.00">
        <route edges="-1096883479#0 -105352753 -60333312#1 -35556702#2 -35556702#0 -176043807#14 -176043807#13 -176043807#11 -176043807#10 -176043807#9 -176043807#8 -176043807#7 -176043807#6 -176043807#5 -176043807#4 -176043807#0 -176043806#1 -176043806#0 -1100824590 -111251382#3 -111251382#2 541295978#1 1097921784#1 -541295974 6228081#0 -222328410 -4610472#4 -4610472#2 -4610472#1 -4610472#0 -137630045#1 -137630045#0 -195397541#4 -195397541#3 -195397541#2 -195397541#0 -195397539 35578559 195397541#0 195397541#2 195397541#3 195397541#4 137630045#0"/>
    </vehicle>
    <vehicle id="carIn886:1" type="default" depart="275.00" departPos="1.00" arrivalPos="131.32" arrivalSpeed="0.00">
        <route edges="-1123106898 -292429062#3 -292429062#2 -292429062#1 -292429062#0 -153698380#2 342968607#1 -194069450#1 -882389497 171423001#0 171423001#1 171423001#2 -292429056#4 -292429056#2 292429056#0"/>
    </vehicle>
    <vehicle id="h1794c1:1" type="default" depart="277.00" departPos="17.32" arrivalPos="1.00" arrivalSpeed="0.00">
        <route edges="1105574290 831860725#0 -23755950#4 -23755950#1 -23755950#0 -66071366#4 4773029#0 4773029#1 4773029#2 28251222#0 28251222#1 169195795#4 169195795#5 169195795#6 169195795#7 1113726463 1077923225#0 882389494 340498988#0 169999355#0 -11483007#2 -1123106322#2 -158023913#1 -1123106898"/>
    </vehicle>
    <vehicle id="carIn149:1" type="default" depart="282.00" departPos="1.00" arrivalPos="61.52" arrivalSpeed="0.00">
        <route edges="-1096883479#0 1096883478#1 1096883479#3 1096883480#1 -1020977670#0 -153698415#0 4412886 24234486 25945965 4588211#0 4588211#1 437325056#0 437325055#1 108031933#0 24240246#1 24240246#2 24240246#3 236092221#0 236092221#1 236092221#2 236092221#3 342968607#1 461526152#0 1079495669#0 1079495669#2 340498982#0 340498982#1 340498982#4 340498982#5 251884680#0 251884680#1 251884680#2 339201217 54048862#1 54048862#3 831694400 23013165#1 23013165#2 202156994#0 72157174#1 171826984#2 195401006 1113401735#1 139877314#1 783042668 1105526112#1"/>
    </vehicle>
    <vehicle id="carIn823:1" type="default" depart="299.00" departPos="1.00" arrivalPos="1.00" arrivalSpeed="0.00">
        <route edges="-1123106898"/>
    </vehicle>
    <vehicle id="carIn1452:1" type="default" depart="299.00" departPos="1.00" arrivalPos="113.14" arrivalSpeed="0.00">
        <route edges="-1096883479#0 1096883478#1 1096883479#3 1096883480#1 -1020977670#0 -153698415#0 4412886 24234486 25945965 4588211#0 4588211#1 437325056#0 437325055#1 108031933#0 24240246#1 24240246#2 24240246#3 236092221#0 236092221#1 236092221#2 236092221#3 342968607#1 461526152#0 66071373#1 1116360926#1 1111982484 -24242882"/>
    </vehicle>
    <vehicle id="carIn1013:1" type="default" depart="300.00" departPos="1.00" arrivalPos="11.73" arrivalSpeed="0.00">
        <route edges="-1123106898 -292429062#3 -292429062#2 -292429062#1 -292429062#0 -153698380#2 342968607#1 461526152#0 1079495669#0 1079495669#2 340498982#0 340498982#1 340498982#4 340498982#5 251884680#0 251884680#1 251884680#2 339201217 54048862#1 54048862#3 831694400 23013165#1 23013165#2 202156994#0 -534588621#1 -534588621#0 606078071#0 61583423#1 -751595930 82654059#0 82654059#1 82654059#2 60333311#1 60333311#2 289966097#0 289966097#1 289666657 4612969#1 4612969#2 82658671#1 82658674#0 82658674#1 82658674#2 82658674#3 -24992424#2"/>
    </vehicle>
    <vehicle id="carIn806:1" type="default" depart="302.00" departPos="1.00" arrivalPos="1.00" arrivalSpeed="0.00">
        <route edges="-1096883479#0"/>
    </vehicle>
    <vehicle id="carIn379:1" type="default" depart="307.00" departPos="1.00" arrivalPos="12.52" arrivalSpeed="0.00">
        <route edges="-1096883479#0 -105352753 -60333312#1 -35556702#2 -35556702#0 -176043807#14 -176043807#13 -176043807#11 -176043807#10 -176043807#9 -176043807#8 -176043807#7 -176043807#6 -176043807#5 -176043807#4 -176043807#0 -176043806#1 -176043806#0 -1100824590 -111251382#3 -111251382#2 478432725 35269774#0 35269774#2 35269774#3 35269774#4 465376253#1 169717723#1 169717723#3 441788215 1102154066#0 1102154066#2 312651887#0 73310502#1 312651885 30196049#0 30196049#1 -30196049#1 -30196049#0 -312651885"/>
    </vehicle>
    <vehicle id="h79c1:1" type="default" depart="312.00" departPos="26.55" arrivalPos="13.25" arrivalSpeed="0.00">
        <route edges="-1102154068#0 -153692978#3 -153692978#2 153692978#1 153692978#3 1102154068#0 312651888#1 -36689633#0 -980542375#1 4296467#1 4296467#2 267542609#0 267542610#1 267542610#2"/>
    </vehicle>
    <vehicle id="carIn464:1" type="default" depart="313.00" departPos="1.00" arrivalPos="23.55" arrivalSpeed="0.00">
        <route edges="-1096883479#0 1096883478#1 1096883479#3 1096883480#1 -1020977670#0 -153698415#0 4412886 24234486 25945965 4588211#0 4588211#1 437325056#0 437325055#1 108031933#0 24240246#1 24240246#2 24240246#3 236092221#0 236092221#1 236092221#2 236092221#3 342968607#1 461526152#0 1079495669#0 1079495669#2 340498982#0 340498982#1 340498982#4 340498982#5 251884680#0 251884680#1 251884680#2 339201217 54048862#1 54048862#3 831694400 23013165#1 23013165#2 202156994#0 -534588621#1 -534588621#0 606078071#0 61583423#1 -751595930 82654059#0 82654059#1 82654059#2 60333311#1 60333311#2 289966097#0 289966097#1 289666657 4612969#1 4612969#2 82658671#1 82658674#0 82658674#1 82658674#2 82658674#3 -24992424#2 24992424#0"/>
    </vehicle>
    <vehicle id="carIn310:1" type="default" depart="314.00" departPos="1.00" arrivalPos="85.76" arrivalSpeed="0.00">
        <route edges="-1123106898 1123106516 158023913#1 158023913#3 22972195#2 465376239 465376255#2 190447767 190447766#1 4402228#0 465376254#0 -4610472#4 -4610472#2 -4610472#1 -4610472#0 -339201185 24243101 1114798610#0 1114798610#1 24243107#0 24243107#1 24243107#2 24243107#3 437325054#0 -165415464#1 165415454#0 165415454#1 -312651888#4 -36689633#0 -980542375#1 80715076#1 80715076#3 -80715076#3"/>
    </vehicle>
    <vehicle id="carIn337:1" type="default" depart="314.00" departPos="1.00" arrivalPos="6.31" arrivalSpeed="0.00">
        <route edges="-1123106898 1123106516 158023913#1 158023913#3 22972195#2 465376239 465376255#2 190447767 190447766#1 4402228#0 465376254#0 222328410 -6228081#1 541295974 30720544#0 30720544#1 42103020#0 42103020#2 111251382#1 111251382#3 1100889498 -1100824590 -111251382#3 -111251382#2"/>
    </vehicle>
    <vehicle id="carIn1014:1" type="default" depart="320.00" departPos="1.00" arrivalPos="1.00" arrivalSpeed="0.00">
        <route edges="-1096883479#0 -105352753 -60333312#1 -35556702#2 -35556702#0 -176043807#14 -176043807#13 -176043807#11 -176043807#10 -176043807#9 -176043807#8 -176043807#7 -176043807#6 -176043807#5 -176043807#4 -176043807#0 -176043806#1 -176043806#0 -1100824590 -111251382#3 -111251382#2 541295978#1 1097921784#1 -541295974 6228081#0 -222328410 -465376254#2 -4402228#1 190447768#2 195411602#1 465376240#0 195411604 -1123106322#2 -158023913#1 -1123106898"/>
    </vehicle>
    <vehicle id="carIn265:1" type="default" depart="331.00" departPos="1.00" arrivalPos="21.26" arrivalSpeed="0.00">
        <route edges="-1123106898 1123106516 158023913#1 158023913#3 22972195#2 465376239 465376255#2 190447767 190447766#1 4402228#0 465376254#0 222328410 -6228081#1 541295974 30720544#0 30720544#1 42103020#0 42103020#2 478432725 35269774#0 35269774#2 35269774#3 35269774#4 1102154074#1 465376252 1102154075 389705411 1102154076 374734389#0 374734389#1 374734389#3"/>
    </vehicle>
    <vehicle id="carIn1070:1" type="default" depart="342.00" departPos="1.00" arrivalPos="66.10" arrivalSpeed="0.00">
        <route edges="-1096883479#0 -105352753 -60333312#1 -35556702#2 -35556702#0 -176043807#14 -176043807#13 -176043807#11 -176043807#10 -176043807#9 -176043807#8 -176043807#7 -176043807#6 -176043807#5 -176043807#4 -176043807#0 -176043806#1 -176043806#0 -1100824590 -111251382#3 -111251382#2 478432725 35269774#0 35269774#2 35269774#3"/>
    </vehicle>
    <vehicle id="randUni9957:1" type="random" depart="342.00" departPos="5.31" arrivalPos="0.02" arrivalSpeed="0.00">
        <route edges="4610351#0 1120993183#1 30721660#1 437325047#0 437325047#2 437325047#3 437325047#5 560370523 437325048#0 -437325054#1 -24243107#3 168940071#0 168940071#1 168940071#2 168940071#3 168940071#4 42103020#0 42103020#2 111251382#1 111251382#3 1100889498 176043806#0 176043806#1 176043807#0 176043807#1 176043807#5 176043807#6 176043807#7 176043807#8 176043807#9 176043807#10 176043807#11 176043807#12 176043807#14 1102154082#0 1102154082#1 -153698387#0 -1102154082#0"/>
    </vehicle>
    <vehicle id="randUni17527:1" type="random" depart="345.00" departPos="31.31" arrivalPos="2.36" arrivalSpeed="0.00">
        <route edges="23121445#0 23121445#1 23121445#2 23121445#3 23121445#4 23121445#5 541763974 61584187#0 61584187#1 15971197 4611699#0 4611699#1 169195795#0 169195795#1 169195795#4 169195795#5 169195795#6 169195795#7 1113726463 1077923225#0 882389494 340498988#0 188386313#1 188386313#2 1119935543 153698380#0"/>
    </vehicle>
    <vehicle id="h634c1:1" type="default" depart="357.00" departPos="11.86" arrivalPos="1.00" arrivalSpeed="0.00">
        <route edges="-437325056#1 -4588211#1 -4588211#0 1102154084#1 153698402#0 153698402#1 153698402#2 153698402#3 -292429063#1 24243052#0 24243052#1 24243052#2 24243052#3 24243052#4 24243052#5 465376240#0 195411604 -1123106322#2 -158023913#1 -1123106898"/>
    </vehicle>
    <vehicle id="carIn1104:1" type="default" depart="363.00" departPos="1.00" arrivalPos="16.46" arrivalSpeed="0.00">
        <route edges="-1096883479#0 1096883478#1 1096883479#3 1096883480#1 -1020977670#0 -153698415#0 4412886 24234486 25945965 4588211#0 4588211#1 437325056#0 437325055#1 108031933#0 24240246#1 24240246#2 24240246#3 236092221#0 236092221#1 236092221#2 236092221#3 342968607#1 461526152#0 1079495669#0 1079495669#2 340498982#0 340498982#1 340498982#4 340498982#5 251884680#0 251884680#1 251884680#2 339201217 54048862#1 54048862#3 831694400 23013165#1 23013165#2 202156994#0 -534588621#1"/>
    </vehicle>
    <vehicle id="carIn1382:1" type="default" depart="365.00" departPos="1.00" arrivalPos="42.04" arrivalSpeed="0.00">
        <route edges="-1096883479#0 1096883478#1 1096883479#3 1096883480#1 -1020977670#0 -153698415#0 4412886 24234486 25945965 4588211#0 4588211#1 437325056#0 437325055#1 108031933#0 24240246#1 24240246#2 24240246#3 236092221#0 236092221#1 236092221#2 236092221#3 342968607#1 461526152#0 1079495669#0 1079495669#2 340498982#0 340498982#1 340498982#4 340498982#5 251884680#0 251884680#1 251884680#2 339201217"/>
    </vehicle>
    <vehicle id="carIn714:1" type="default" depart="369.00" departPos="1.00" arrivalPos="52.52" arrivalSpeed="0.00">
        <route edges="-1096883479#0 -105352753 -60333312#1 -35556702#2 -35556702#0 -176043807#14 -176043807#13 -176043807#11 -176043807#10 -176043807#9 -176043807#8 -176043807#7 -176043807#6 -176043807#5 -176043807#4 -176043807#0 -176043806#1 -176043806#0 -1100824590 -111251382#3 -111251382#2 541295978#1 1097921784#1 -541295974 6228081#0 -222328410 -4610472#4 -195397561#4 -195397561#2 -195397561#1 -195397561#0 35578576#0 35578576#1 35578576#2"/>
    </vehicle>
    <vehicle id="h1906c1:1" type="default" depart="370.00" departPos="17.54" arrivalPos="14.30" arrivalSpeed="0.00">
        <route edges="131505631 176043794 -1100824590 -111251382#3 -111251382#2 478432725 35269774#0 35269774#2 35269774#3 35269774#4 318915602#3 -1102154070 -268002745#2 -268002745#1 -36689633#0 -980542375#1 4296467#1 4296467#2 267542609#0 267542610#1 267542610#2 1103300945#1 371927739#1 371927739#2 371927739#3 36892597#1 36892597#3 1103300964#1 1103300964#2 11103418#0 11103418#1 11103418#2 11103418#3 23809678#0 23809678#1 23809678#3"/>
    </vehicle>
    <vehicle id="h2732c1:1" type="default" depart="371.00" departPos="41.92" arrivalPos="1.00" arrivalSpeed="0.00">
        <route edges="24992424#0 -24992424#2 1025851953 4612968#0 4612968#1 4612968#2 4612968#3 1040930906 4611726#2 82649618 819027709#0 819027709#2 606078070#0 606078065 1112054538 61583424#1 534588621#0 534588621#1 24913519#1 24913519#2 541763975 202156995#0 202156995#1 4067932#0 4067932#1 541763974 61584187#0 61584187#1 15971197 4611699#0 4611699#1 169195795#0 169195795#1 169195795#4 169195795#5 169195795#6 169195795#7 1113726463 1077923225#0 882389494 340498988#0 169999355#0 -11483007#2 -1123106322#2 -158023913#1 -1123106898"/>
    </vehicle>
    <vehicle id="carIn333:1" type="default" depart="373.00" departPos="1.00" arrivalPos="5.73" arrivalSpeed="0.00">
        <route edges="-1096883479#0 1096883478#1 1096883479#3 1096883480#1 -1020977670#0 -153698415#0 4412886 24234486 25945965 4588211#0 4588211#1 437325056#0 437325055#1 108031933#0 24240246#1 24240246#2 24240246#3 236092221#0 236092221#1 236092221#2 236092221#3 342968607#1 461526152#0 1079495669#0 1079495669#2 340498982#0 340498982#1 340498982#4 340498982#5 251884680#0 251884680#1 251884680#2 339201217 54048862#1 54048862#3 831694400 23013165#1 23013165#2 202156994#0 4773465#1 4773465#2 490365295#0 -156364570#3 -156364570#1 -156364570#0 -77348147 -387892378 -370359204#1 -370359204#0 168942727#0"/>
    </vehicle>
    <vehicle id="carIn667:1" type="default" depart="373.00" departPos="1.00" arrivalPos="1.00" arrivalSpeed="0.00">
        <route edges="-1123106898 930343901#0 930343901#1 930343901#2 24242892#0 24242892#1 -437325056#1 -4588211#1 -4588211#0 -25945966 -24234486 -4412886 153698415#0 153698415#1 -76212441#0 -1096883480#0 -1096883479#0"/>
    </vehicle>
    <vehicle id="carIn413:1" type="default" depart="379.00" departPos="1.00" arrivalPos="54.20" arrivalSpeed="0.00">
        <route edges="-1096883479#0 -105352753 -60333312#1 -35556702#2 -35556702#0 -176043807#14 -176043807#13 -176043807#11 -176043807#10 -176043807#9 -176043807#8 -176043807#7 -176043807#6 -176043807#5 -176043807#4 -176043807#0 -176043806#1 -176043806#0 -1100824590 -111251382#3 -111251382#2 541295978#1 1097921784#1 -541295974 6228081#0 -222328410 -465376254#2 -4402228#1 190447768#2 195411602#1 465376240#0 195411604 -1123106322#2"/>
    </vehicle>
    <vehicle id="carIn1658:1" type="default" depart="383.00" departPos="1.00" arrivalPos="1.00" arrivalSpeed="0.00">
        <route edges="-1096883479#0"/>
    </vehicle>
    <vehicle id="carIn1441:1" type="default" depart="392.00" departPos="1.00" arrivalPos="1.00" arrivalSpeed="0.00">
        <route edges="-1096883479#0 -105352753 -60333312#1 -35556702#2 -35556702#0 -176043807#14 -176043807#13 -176043807#11 -176043807#10 -176043807#9 -176043807#8 -176043807#7 -176043807#6 -176043807#5 -176043807#4 -176043807#0 -176043806#1 -176043806#0 -1100824590 -111251382#3 -111251382#2 541295978#1 1097921784#1 -541295974 6228081#0 -222328410 -465376254#2 -4402228#1 190447768#2 195411602#1 465376240#0 195411604 -1123106322#2 -158023913#1 -1123106898"/>
    </vehicle>
    <vehicle id="carIn837:1" type="default" depart="401.00" departPos="1.00" arrivalPos="93.19" arrivalSpeed="0.00">
        <route edges="-1123106898 -292429062#3 -292429062#2 -292429062#1 -292429062#0 -153698380#2 342968607#1 461526152#0 1079495669#0 1079495669#2 340498982#0 340498982#1 340498982#4 340498982#5 251884680#0 251884680#1 251884680#2 339201217 54048862#1 54048862#3 831694400 23013165#1 23013165#2 202156994#0 4773465#1 4773465#2 490365295#0 -156364570#3 -156364570#1 -156364570#0 -77348147 -387892378 -370359204#1 -370359204#0 -743631784 -316746323#3 46140376#1 46140376#2 -84960597#2 -84960597#1 -84960597#0 11103418#0 11103418#1 11103418#2 11103418#3 23809678#0 23809678#1"/>
    </vehicle>
    <vehicle id="h461c1:1" type="default" depart="407.00" departPos="35.96" arrivalPos="1.00" arrivalSpeed="0.00">
        <route edges="-312651885 -73310502#2 -312651887#1 -1102154067 -1102154066#1 -441788215 -169717723#3 -169717723#2 6227654#1 1102154074#1 465376252 1102154075 389705411 1102154076 374734389#0 374734389#1 374734389#3 111251382#1 111251382#3 1100889498 176043806#0 176043806#1 176043807#0 176043807#1 176043807#5 176043807#6 176043807#7 176043807#8 176043807#9 176043807#10 176043807#11 176043807#12 176043807#14 1102154082#0 1102154082#1 153698387#2 -76212441#0 -1096883480#0 -1096883479#0"/>
    </vehicle>
    <vehicle id="h2545c1:1" type="default" depart="409.00" departPos="59.76" arrivalPos="42.90" arrivalSpeed="0.00">
        <route edges="23121445#0 23121445#1 23121445#2 23121445#3 23121445#4 23121445#5 541763974 61584187#0 61584187#1 15971197 4611699#0 4611699#1 169195795#0 169195795#1 169195795#4 169195795#5 169195795#6 169195795#7 1113726463 1077923225#0 882389494 340498988#0 188386313#1 188386313#2 1119935543 153698380#0 292429062#0 292429062#1 292429062#2 292429062#3 292429063#0 24243052#0 24243052#1 24243052#2 24243052#3 688761153 465376243#1 24243056"/>
    </vehicle>
    <vehicle id="carIn226:1" type="default" depart="411.00" departPos="1.00" arrivalPos="199.07" arrivalSpeed="0.00">
        <route edges="-1123106898 -292429062#3 -292429062#2 -292429062#1 -292429062#0 -153698380#2 342968607#1 461526152#0 1079495669#0 1079495669#2 340498982#0 340498982#1 340498982#4 340498982#5 251884680#0 251884680#1 251884680#2 339201217 54048862#1 54048862#3 831694400 23013165#1 23013165#2 202156994#0 -534588621#1 -534588621#0 606078071#0 61583423#1 -751595930 82654059#0 82654059#1 82654059#2 60333311#1 60333311#2 289966097#0 289966097#1 289666657 4612969#1 4612969#2 82658671#1 82658674#0 82658674#1 82658674#2 82658674#3 168943640#0 168943640#3 168943640#4 -82652816 82652816"/>
    </vehicle>
    <vehicle id="carIn1932:1" type="default" depart="412.00" departPos="1.00" arrivalPos="15.73" arrivalSpeed="0.00">
        <route edges="-1096883479#0 1096883478#1 1096883479#3 1096883480#1 -1020977670#0 -153698415#0 4412886 24234486 25945965 4588211#0 4588211#1 437325056#0 437325055#1 108031933#0 24240246#1 24240246#2 24240246#3 236092221#0 236092221#1 236092221#2 236092221#3 342968607#1 461526152#0 1079495669#0 1079495669#2 340498982#0 340498982#1 340498982#4 340498982#5 251884680#0 251884680#1 251884680#2 339201217 54048862#1 54048862#3 831694400"/>
    </vehicle>
    <vehicle id="carIn1237:1" type="default" depart="413.00" departPos="1.00" arrivalPos="1.00" arrivalSpeed="0.00">
        <route edges="-1096883479#0"/>
    </vehicle>
    <vehicle id="h9c1:1" type="default" depart="415.00" departPos="195.66" arrivalPos="1.82" arrivalSpeed="0.00">
        <route edges="-1024034687 -55741054 -168942727#1 -168942727#0 -743631784 -316746323#3 183415643 46140382 1120993114#0 1120993114#1 1120993114#2 1120993183#1 30721660#1 1117432853"/>
    </vehicle>
    <vehicle id="carIn460:1" type="default" depart="417.00" departPos="1.00" arrivalPos="56.87" arrivalSpeed="0.00">
        <route edges="-1123106898 -292429062#3 -292429062#2 -292429062#1 -292429062#0 -153698380#2 342968607#1 461526152#0 1079495669#0 1079495669#2 340498982#0 340498982#1 340498982#4 340498982#5 251884680#0 251884680#1 251884680#2 339201217 54048862#1 54048862#3 831694400 23013165#1 23013165#2 202156994#0 4773465#1 4773465#2 490365295#0 -156364570#3 -156364570#1 -156364570#0 -77348147 25294728 1102369940#1 1110526068 234463931#0 234463931#1 1121012037#1 234463928#1 55741054 1024034687 4613294#4 4613294#5 4613286#1 4613286#2"/>
    </vehicle>
    <vehicle id="carIn1157:1" type="default" depart="418.00" departPos="1.00" arrivalPos="7.03" arrivalSpeed="0.00">