<?xml version="1.0" encoding="UTF-8"?>

<!-- generated on 2022-12-21 11:39:17 by Eclipse SUMO activitygen Version 1.14.1
<configuration xmlns:xsi="http://www.w3.org/2001/XMLSchema-instance" xsi:noNamespaceSchemaLocation="http://sumo.dlr.de/xsd/activitygenConfiguration.xsd">

    <input>
        <net-file value="osm.net.xml"/>
        <stat-file value="stat_file_generated.stat.xml"/>
    </input>

    <output>
        <output-file value="trips_file.trips.rou.xml"/>
    </output>

    <random_number>
        <random value="true"/>
    </random_number>

</configuration>
-->

<routes xmlns:xsi="http://www.w3.org/2001/XMLSchema-instance" xsi:noNamespaceSchemaLocation="http://sumo.dlr.de/xsd/routes_file.xsd">
    <vType id="default" vClass="passenger" color="red"/>
    <vType id="random" vClass="passenger" color="blue"/>
    <vType id="bus" vClass="bus" color="green"/>

    <trip id="carIn386:1" type="default" depart="0.00" departPos="1.00" arrivalPos="18.33" arrivalSpeed="0.00" from="-1096883479#0" to="705182548"/>
    <trip id="carIn412:1" type="default" depart="0.00" departPos="1.00" arrivalPos="19.66" arrivalSpeed="0.00" from="-1123106898" to="327481224#1"/>
    <trip id="carIn1761:1" type="default" depart="0.00" departPos="1.00" arrivalPos="1.23" arrivalSpeed="0.00" from="-1096883479#0" to="1081160279#1"/>
    <trip id="randUni10391:1" type="random" depart="4.00" departPos="27.97" arrivalPos="2.28" arrivalSpeed="0.00" from="868813900" to="-474154200#0"/>
    <trip id="randUni2990:1" type="random" depart="8.00" departPos="4.42" arrivalPos="24.49" arrivalSpeed="0.00" from="687804456#1" to="304987178#1"/>
    <trip id="randUni13952:1" type="random" depart="32.00" departPos="21.94" arrivalPos="2.79" arrivalSpeed="0.00" from="504171782#1" to="317013528#3"/>
    <trip id="randUni13408:1" type="random" depart="40.00" departPos="7.14" arrivalPos="1.39" arrivalSpeed="0.00" from="327481191#1" to="1096883478#1"/>
    <trip id="randUni7528:1" type="random" depart="58.00" departPos="14.57" arrivalPos="31.24" arrivalSpeed="0.00" from="104191076#1" to="31100099"/>
    <trip id="randUni5158:1" type="random" depart="66.00" departPos="9.70" arrivalPos="1.56" arrivalSpeed="0.00" from="195397561#1" to="1070124291"/>
    <trip id="randUni23327:1" type="random" depart="76.00" departPos="0.07" arrivalPos="0.17" arrivalSpeed="0.00" from="171423002#2" to="1066874327#1"/>
    <trip id="carIn14:1" type="default" depart="78.00" departPos="1.00" arrivalPos="93.35" arrivalSpeed="0.00" from="-1096883479#0" to="310548395"/>
    <trip id="carIn286:1" type="default" depart="84.00" departPos="1.00" arrivalPos="1.00" arrivalSpeed="0.00" from="-1096883479#0" to="-1096883479#0"/>
    <trip id="carIn509:1" type="default" depart="86.00" departPos="1.00" arrivalPos="75.42" arrivalSpeed="0.00" from="-1123106898" to="34834265#1"/>
    <trip id="randUni8188:1" type="random" depart="89.00" departPos="0.09" arrivalPos="26.35" arrivalSpeed="0.00" from="1071076177#0" to="-497246363"/>
    <trip id="randUni441:1" type="random" depart="99.00" departPos="10.81" arrivalPos="2.11" arrivalSpeed="0.00" from="1071076150#2" to="24273323#0"/>
    <trip id="randUni24671:1" type="random" depart="106.00" departPos="0.95" arrivalPos="44.49" arrivalSpeed="0.00" from="4840977#2" to="-136571494#2"/>
    <trip id="randUni10024:1" type="random" depart="112.00" departPos="1.16" arrivalPos="3.01" arrivalSpeed="0.00" from="272757280" to="688445662#3"/>
    <trip id="randUni20228:1" type="random" depart="123.00" departPos="5.05" arrivalPos="10.70" arrivalSpeed="0.00" from="-465376254#2" to="559106793"/>
    <trip id="carIn122:1" type="default" depart="131.00" departPos="1.00" arrivalPos="40.00" arrivalSpeed="0.00" from="-1096883479#0" to="175192743"/>
    <trip id="randUni9569:1" type="random" depart="134.00" departPos="0.40" arrivalPos="36.87" arrivalSpeed="0.00" from="313323171#2" to="150394035#6"/>
    <trip id="carIn1600:1" type="default" depart="139.00" departPos="1.00" arrivalPos="195.99" arrivalSpeed="0.00" from="-1123106898" to="272795470#1"/>
    <trip id="randUni1303:1" type="random" depart="139.00" departPos="3.72" arrivalPos="0.98" arrivalSpeed="0.00" from="437500500" to="122820534#2"/>
    <trip id="randUni25912:1" type="random" depart="140.00" departPos="0.18" arrivalPos="23.44" arrivalSpeed="0.00" from="153424801#2" to="-168943640#2"/>
    <trip id="randUni11572:1" type="random" depart="141.00" departPos="61.75" arrivalPos="3.00" arrivalSpeed="0.00" from="188914559#1" to="461165665#3"/>
    <trip id="h4106c1:1" type="default" depart="145.00" departPos="80.33" arrivalPos="1.00" arrivalSpeed="0.00" from="4610374" to="-1096883479#0"/>
    <trip id="carIn297:1" type="default" depart="145.00" departPos="1.00" arrivalPos="160.08" arrivalSpeed="0.00" from="-1096883479#0" to="29384659#1"/>
    <trip id="randUni13987:1" type="random" depart="147.00" departPos="1.74" arrivalPos="2.40" arrivalSpeed="0.00" from="24243052#2" to="881245039"/>
    <trip id="carIn1719:1" type="default" depart="148.00" departPos="1.00" arrivalPos="110.92" arrivalSpeed="0.00" from="-1123106898" to="199579024#2"/>
    <trip id="randUni22302:1" type="random" depart="148.00" departPos="1.75" arrivalPos="3.81" arrivalSpeed="0.00" from="83517336#1" to="51167934#4"/>
    <trip id="carIn1776:1" type="default" depart="151.00" departPos="1.00" arrivalPos="43.07" arrivalSpeed="0.00" from="-1096883479#0" to="-102408133"/>
    <trip id="carIn1459:1" type="default" depart="152.00" departPos="1.00" arrivalPos="718.73" arrivalSpeed="0.00" from="-1096883479#0" to="32572622#1"/>
    <trip id="randUni25530:1" type="random" depart="154.00" departPos="7.62" arrivalPos="0.35" arrivalSpeed="0.00" from="34411873" to="-566154994#0"/>
    <trip id="carIn452:1" type="default" depart="156.00" departPos="1.00" arrivalPos="152.58" arrivalSpeed="0.00" from="-1096883479#0" to="832173068#0"/>
    <trip id="carIn963:1" type="default" depart="157.00" departPos="1.00" arrivalPos="268.99" arrivalSpeed="0.00" from="-1096883479#0" to="272795470#1"/>
    <trip id="h356c1:1" type="default" depart="158.00" departPos="2.18" arrivalPos="1.00" arrivalSpeed="0.00" from="-23852056#0" to="-1096883479#0"/>
    <trip id="carIn1591:1" type="default" depart="160.00" departPos="1.00" arrivalPos="1279.05" arrivalSpeed="0.00" from="-1123106898" to="295376548"/>
    <trip id="carIn1833:1" type="default" depart="163.00" departPos="1.00" arrivalPos="247.00" arrivalSpeed="0.00" from="-1096883479#0" to="1066874324#0"/>
    <trip id="randUni9557:1" type="random" depart="166.00" departPos="57.40" arrivalPos="9.75" arrivalSpeed="0.00" from="199425790#2" to="137085413"/>
    <trip id="h2214c2:1" type="default" depart="167.00" departPos="33.61" arrivalPos="1.00" arrivalSpeed="0.00" from="168942727#0" to="-1096883479#0"/>
    <trip id="randUni22212:1" type="random" depart="171.00" departPos="10.36" arrivalPos="0.15" arrivalSpeed="0.00" from="100950875#2" to="1090247387#0"/>
    <trip id="carIn124:1" type="default" depart="173.00" departPos="1.00" arrivalPos="7.37" arrivalSpeed="0.00" from="-1123106898" to="915958608#0"/>
    <trip id="randUni16698:1" type="random" depart="174.00" departPos="2.00" arrivalPos="0.11" arrivalSpeed="0.00" from="256678739#1" to="868813916#0"/>
    <trip id="carIn298:1" type="default" depart="180.00" departPos="1.00" arrivalPos="69.51" arrivalSpeed="0.00" from="-1096883479#0" to="437140526"/>
    <trip id="carIn858:1" type="default" depart="182.00" departPos="1.00" arrivalPos="134.94" arrivalSpeed="0.00" from="-1096883479#0" to="-371927740#1"/>
    <trip id="carIn135:1" type="default" depart="184.00" departPos="1.00" arrivalPos="625.94" arrivalSpeed="0.00" from="-1096883479#0" to="109444375#2"/>
    <trip id="randUni2758:1" type="random" depart="190.00" departPos="0.29" arrivalPos="2.53" arrivalSpeed="0.00" from="42102542#1" to="504171782#3"/>
    <trip id="randUni25965:1" type="random" depart="193.00" departPos="0.22" arrivalPos="5.81" arrivalSpeed="0.00" from="237221874#4" to="1114794282"/>
    <trip id="carIn957:1" type="default" depart="203.00" departPos="1.00" arrivalPos="63.93" arrivalSpeed="0.00" from="-1123106898" to="-225400578#2"/>
    <trip id="carIn781:1" type="default" depart="204.00" departPos="1.00" arrivalPos="1.00" arrivalSpeed="0.00" from="-1096883479#0" to="-1123106898"/>
    <trip id="carIn408:1" type="default" depart="208.00" departPos="1.00" arrivalPos="43.33" arrivalSpeed="0.00" from="-1123106898" to="144014234#1"/>
    <trip id="h4458c1:1" type="default" depart="211.00" departPos="73.44" arrivalPos="1.00" arrivalSpeed="0.00" from="55741054" to="-1096883479#0"/>
    <trip id="randUni59:1" type="random" depart="212.00" departPos="67.80" arrivalPos="4.95" arrivalSpeed="0.00" from="24914141#0" to="734578686"/>
    <trip id="randUni24184:1" type="random" depart="212.00" departPos="38.25" arrivalPos="0.09" arrivalSpeed="0.00" from="-19002363#2" to="154321040#4"/>
    <trip id="randUni2145:1" type="random" depart="217.00" departPos="2.65" arrivalPos="16.08" arrivalSpeed="0.00" from="-31112379#3" to="-1102154066#1"/>
    <trip id="randUni2767:1" type="random" depart="225.00" departPos="37.03" arrivalPos="6.22" arrivalSpeed="0.00" from="23809678#3" to="176043822#3"/>
    <trip id="carIn959:1" type="default" depart="226.00" departPos="1.00" arrivalPos="69.75" arrivalSpeed="0.00" from="-1096883479#0" to="199425790#3"/>
    <trip id="randUni19735:1" type="random" depart="230.00" departPos="2.91" arrivalPos="56.47" arrivalSpeed="0.00" from="327481202" to="24243056"/>
    <trip id="carIn909:1" type="default" depart="236.00" departPos="1.00" arrivalPos="33.33" arrivalSpeed="0.00" from="-1096883479#0" to="-1102369940#0"/>
    <trip id="randUni17680:1" type="random" depart="237.00" departPos="13.17" arrivalPos="33.66" arrivalSpeed="0.00" from="1037136887#0" to="1071007431#9"/>
    <trip id="carIn1682:1" type="default" depart="239.00" departPos="1.00" arrivalPos="0.17" arrivalSpeed="0.00" from="-1096883479#0" to="1071076162#1"/>
    <trip id="carIn171:1" type="default" depart="240.00" departPos="1.00" arrivalPos="46.86" arrivalSpeed="0.00" from="-1123106898" to="318915602#3"/>
    <trip id="carIn596:1" type="default" depart="240.00" departPos="1.00" arrivalPos="1.00" arrivalSpeed="0.00" from="-1123106898" to="-1096883479#0"/>
    <trip id="randUni1956:1" type="random" depart="242.00" departPos="162.58" arrivalPos="121.22" arrivalSpeed="0.00" from="23851917#0" to="100950875#3"/>
    <trip id="randUni24502:1" type="random" depart="243.00" departPos="2.64" arrivalPos="5.14" arrivalSpeed="0.00" from="202157014#1" to="492340367#2"/>
    <trip id="carIn1552:1" type="default" depart="249.00" departPos="1.00" arrivalPos="30.88" arrivalSpeed="0.00" from="-1096883479#0" to="23852053#3"/>
    <trip id="randUni1082:1" type="random" depart="249.00" departPos="1.24" arrivalPos="6.52" arrivalSpeed="0.00" from="335576646#3" to="-831860725#2"/>
    <trip id="randUni11647:1" type="random" depart="250.00" departPos="0.38" arrivalPos="137.91" arrivalSpeed="0.00" from="377494316#1" to="532727925#1"/>
    <trip id="randUni15963:1" type="random" depart="252.00" departPos="15.82" arrivalPos="6.01" arrivalSpeed="0.00" from="51167934#2" to="344595599"/>
    <trip id="carIn398:1" type="default" depart="253.00" departPos="1.00" arrivalPos="13.53" arrivalSpeed="0.00" from="-1123106898" to="1081366109#1"/>
    <trip id="carIn1060:1" type="default" depart="255.00" departPos="1.00" arrivalPos="15.86" arrivalSpeed="0.00" from="-1123106898" to="-195089504"/>
    <trip id="carIn805:1" type="default" depart="257.00" departPos="1.00" arrivalPos="99.65" arrivalSpeed="0.00" from="-1123106898" to="868813916#6"/>
    <trip id="randUni24996:1" type="random" depart="259.00" departPos="0.10" arrivalPos="6.78" arrivalSpeed="0.00" from="1079045026#1" to="576287029"/>
    <trip id="randUni26142:1" type="random" depart="262.00" departPos="31.31" arrivalPos="1.07" arrivalSpeed="0.00" from="611799384#0" to="171423002#12"/>
    <trip id="h1759c1:1" type="default" depart="264.00" departPos="55.52" arrivalPos="11.96" arrivalSpeed="0.00" from="1102154080#1" to="-844076875#0"/>
    <trip id="carIn268:1" type="default" depart="264.00" departPos="1.00" arrivalPos="639.80" arrivalSpeed="0.00" from="-1096883479#0" to="-942849698"/>
    <trip id="carIn1432:1" type="default" depart="266.00" departPos="1.00" arrivalPos="1.29" arrivalSpeed="0.00" from="-1096883479#0" to="23809670#1"/>
    <trip id="carIn365:1" type="default" depart="270.00" departPos="1.00" arrivalPos="47.09" arrivalSpeed="0.00" from="-1096883479#0" to="-10270987"/>
    <trip id="carIn1741:1" type="default" depart="271.00" departPos="1.00" arrivalPos="1.00" arrivalSpeed="0.00" from="-1096883479#0" to="-1096883479#0"/>
    <trip id="carIn1922:1" type="default" depart="271.00" departPos="1.00" arrivalPos="8.64" arrivalSpeed="0.00" from="-1096883479#0" to="437140526"/>
    <trip id="carIn1496:1" type="default" depart="273.00" departPos="1.00" arrivalPos="4.36" arrivalSpeed="0.00" from="-1096883479#0" to="137630045#0"/>
    <trip id="carIn886:1" type="default" depart="275.00" departPos="1.00" arrivalPos="131.32" arrivalSpeed="0.00" from="-1123106898" to="292429056#0"/>
    <trip id="carIn1276:1" type="default" depart="275.00" departPos="1.00" arrivalPos="0.02" arrivalSpeed="0.00" from="-1096883479#0" to="101699679#0"/>
    <trip id="randUni176:1" type="random" depart="275.00" departPos="5.22" arrivalPos="13.00" arrivalSpeed="0.00" from="327519011#1" to="198495314"/>
    <trip id="randUni3044:1" type="random" depart="276.00" departPos="0.13" arrivalPos="5.52" arrivalSpeed="0.00" from="428486925" to="578212548#0"/>
    <trip id="h1794c1:1" type="default" depart="277.00" departPos="17.32" arrivalPos="1.00" arrivalSpeed="0.00" from="1105574290" to="-1123106898"/>
    <trip id="carIn970:1" type="default" depart="279.00" departPos="1.00" arrivalPos="1.90" arrivalSpeed="0.00" from="-1123106898" to="553222318#1"/>
    <trip id="carIn149:1" type="default" depart="282.00" departPos="1.00" arrivalPos="61.52" arrivalSpeed="0.00" from="-1096883479#0" to="1105526112#1"/>
    <trip id="carIn786:1" type="default" depart="287.00" departPos="1.00" arrivalPos="0.13" arrivalSpeed="0.00" from="-1096883479#0" to="46140379#1"/>
    <trip id="carIn547:1" type="default" depart="289.00" departPos="1.00" arrivalPos="166.49" arrivalSpeed="0.00" from="-1096883479#0" to="1052675176#1"/>
    <trip id="carIn710:1" type="default" depart="289.00" departPos="1.00" arrivalPos="173.30" arrivalSpeed="0.00" from="-1096883479#0" to="868813898#0"/>
    <trip id="carIn903:1" type="default" depart="289.00" departPos="1.00" arrivalPos="17.26" arrivalSpeed="0.00" from="-1123106898" to="780514921"/>
    <trip id="carIn340:1" type="default" depart="294.00" departPos="1.00" arrivalPos="285.29" arrivalSpeed="0.00" from="-1096883479#0" to="25946681"/>
    <trip id="randUni3694:1" type="random" depart="294.00" departPos="13.08" arrivalPos="4.96" arrivalSpeed="0.00" from="-133885743#1" to="272795502#1"/>
    <trip id="carIn1505:1" type="default" depart="295.00" departPos="1.00" arrivalPos="397.85" arrivalSpeed="0.00" from="-1096883479#0" to="381201610"/>
    <trip id="carIn662:1" type="default" depart="297.00" departPos="1.00" arrivalPos="56.91" arrivalSpeed="0.00" from="-1096883479#0" to="175192743"/>
    <trip id="carIn823:1" type="default" depart="299.00" departPos="1.00" arrivalPos="1.00" arrivalSpeed="0.00" from="-1123106898" to="-1123106898"/>
    <trip id="carIn1452:1" type="default" depart="299.00" departPos="1.00" arrivalPos="113.14" arrivalSpeed="0.00" from="-1096883479#0" to="-24242882"/>
    <trip id="carIn1013:1" type="default" depart="300.00" departPos="1.00" arrivalPos="11.73" arrivalSpeed="0.00" from="-1123106898" to="-24992424#2"/>
    <trip id="carIn1250:1" type="default" depart="300.00" departPos="1.00" arrivalPos="8.34" arrivalSpeed="0.00" from="-1096883479#0" to="312392975"/>
    <trip id="carIn806:1" type="default" depart="302.00" departPos="1.00" arrivalPos="1.00" arrivalSpeed="0.00" from="-1096883479#0" to="-1096883479#0"/>
    <trip id="carIn1262:1" type="default" depart="304.00" departPos="1.00" arrivalPos="0.22" arrivalSpeed="0.00" from="-1123106898" to="-574993710"/>
    <trip id="randUni23056:1" type="random" depart="305.00" departPos="11.35" arrivalPos="22.47" arrivalSpeed="0.00" from="578212532#0" to="-899946801#0"/>
    <trip id="carIn379:1" type="default" depart="307.00" departPos="1.00" arrivalPos="12.52" arrivalSpeed="0.00" from="-1096883479#0" to="-312651885"/>
    <trip id="randUni12382:1" type="random" depart="310.00" departPos="99.60" arrivalPos="0.31" arrivalSpeed="0.00" from="1071210938#1" to="397579546"/>
    <trip id="h79c1:1" type="default" depart="312.00" departPos="26.55" arrivalPos="13.25" arrivalSpeed="0.00" from="-1102154068#0" to="267542610#2"/>
    <trip id="carIn464:1" type="default" depart="313.00" departPos="1.00" arrivalPos="23.55" arrivalSpeed="0.00" from="-1096883479#0" to="24992424#0"/>
    <trip id="randUni985:1" type="random" depart="313.00" departPos="1.00" arrivalPos="30.76" arrivalSpeed="0.00" from="335576648#1" to="260138641#0"/>
    <trip id="carIn310:1" type="default" depart="314.00" departPos="1.00" arrivalPos="85.76" arrivalSpeed="0.00" from="-1123106898" to="-80715076#3"/>
    <trip id="carIn337:1" type="default" depart="314.00" departPos="1.00" arrivalPos="6.31" arrivalSpeed="0.00" from="-1123106898" to="-111251382#2"/>
    <trip id="carIn303:1" type="default" depart="315.00" departPos="1.00" arrivalPos="295.68" arrivalSpeed="0.00" from="-1123106898" to="199325270"/>
    <trip id="carIn284:1" type="default" depart="316.00" departPos="1.00" arrivalPos="6.21" arrivalSpeed="0.00" from="-1123106898" to="144529199#3"/>
    <trip id="carIn1713:1" type="default" depart="318.00" departPos="1.00" arrivalPos="106.48" arrivalSpeed="0.00" from="-1123106898" to="199579024#2"/>
    <trip id="randUni573:1" type="random" depart="318.00" departPos="2.17" arrivalPos="5.40" arrivalSpeed="0.00" from="317859977#0" to="915958606#1"/>
    <trip id="carIn1726:1" type="default" depart="319.00" departPos="1.00" arrivalPos="64.51" arrivalSpeed="0.00" from="-1123106898" to="384294420"/>
    <trip id="carIn1014:1" type="default" depart="320.00" departPos="1.00" arrivalPos="1.00" arrivalSpeed="0.00" from="-1096883479#0" to="-1123106898"/>
    <trip id="carIn188:1" type="default" depart="322.00" departPos="1.00" arrivalPos="0.13" arrivalSpeed="0.00" from="-1096883479#0" to="280007140#3"/>
    <trip id="carIn1402:1" type="default" depart="323.00" departPos="1.00" arrivalPos="282.21" arrivalSpeed="0.00" from="-1123106898" to="248099628"/>
    <trip id="carIn77:1" type="default" depart="324.00" departPos="1.00" arrivalPos="42.60" arrivalSpeed="0.00" from="-1123106898" to="331114772#0"/>
    <trip id="carIn243:1" type="default" depart="324.00" departPos="1.00" arrivalPos="111.41" arrivalSpeed="0.00" from="-1096883479#0" to="26733832#0"/>
    <trip id="carIn204:1" type="default" depart="325.00" departPos="1.00" arrivalPos="0.31" arrivalSpeed="0.00" from="-1123106898" to="171826986#5"/>
    <trip id="randUni9208:1" type="random" depart="325.00" departPos="6.03" arrivalPos="0.69" arrivalSpeed="0.00" from="202157029#1" to="30596780"/>
    <trip id="carIn265:1" type="default" depart="331.00" departPos="1.00" arrivalPos="21.26" arrivalSpeed="0.00" from="-1123106898" to="374734389#3"/>
    <trip id="randUni12914:1" type="random" depart="331.00" departPos="1.47" arrivalPos="84.84" arrivalSpeed="0.00" from="553121566" to="-4613299#2"/>
    <trip id="carIn1484:1" type="default" depart="336.00" departPos="1.00" arrivalPos="0.47" arrivalSpeed="0.00" from="-1096883479#0" to="437499015"/>
    <trip id="randUni17749:1" type="random" depart="337.00" departPos="40.53" arrivalPos="0.12" arrivalSpeed="0.00" from="1006720290#1" to="369223458#3"/>
    <trip id="carIn1747:1" type="default" depart="338.00" departPos="1.00" arrivalPos="11.99" arrivalSpeed="0.00" from="-1096883479#0" to="1037136884#2"/>
    <trip id="randUni10829:1" type="random" depart="340.00" departPos="2.68" arrivalPos="0.19" arrivalSpeed="0.00" from="-123264596" to="260815376"/>
    <trip id="carIn636:1" type="default" depart="342.00" departPos="1.00" arrivalPos="646.47" arrivalSpeed="0.00" from="-1096883479#0" to="1066874324#0"/>
    <trip id="carIn1070:1" type="default" depart="342.00" departPos="1.00" arrivalPos="66.10" arrivalSpeed="0.00" from="-1096883479#0" to="35269774#3"/>
    <trip id="randUni9957:1" type="random" depart="342.00" departPos="5.31" arrivalPos="0.02" arrivalSpeed="0.00" from="4610351#0" to="-1102154082#0"/>
    <trip id="carIn215:1" type="default" depart="343.00" departPos="1.00" arrivalPos="17.05" arrivalSpeed="0.00" from="-1123106898" to="557076767#1"/>
    <trip id="randUni17527:1" type="random" depart="345.00" departPos="31.31" arrivalPos="2.36" arrivalSpeed="0.00" from="23121445#0" to="153698380#0"/>
    <trip id="carIn2000:1" type="default" depart="349.00" departPos="1.00" arrivalPos="32.35" arrivalSpeed="0.00" from="-1123106898" to="1071076184#1"/>
    <trip id="randUni24887:1" type="random" depart="349.00" departPos="0.01" arrivalPos="0.11" arrivalSpeed="0.00" from="394345494#1" to="34411872"/>
    <trip id="carIn542:1" type="default" depart="353.00" departPos="1.00" arrivalPos="5.09" arrivalSpeed="0.00" from="-1123106898" to="11482920#0"/>
    <trip id="carIn543:1" type="default" depart="355.00" departPos="1.00" arrivalPos="0.15" arrivalSpeed="0.00" from="-1123106898" to="463898980#4"/>
    <trip id="carIn1343:1" type="default" depart="355.00" departPos="1.00" arrivalPos="73.61" arrivalSpeed="0.00" from="-1123106898" to="32591073#1"/>
    <trip id="h634c1:1" type="default" depart="357.00" departPos="11.86" arrivalPos="1.00" arrivalSpeed="0.00" from="-437325056#1" to="-1123106898"/>
    <trip id="carIn577:1" type="default" depart="358.00" departPos="1.00" arrivalPos="0.03" arrivalSpeed="0.00" from="-1123106898" to="1071076177#2"/>
    <trip id="carIn113:1" type="default" depart="359.00" departPos="1.00" arrivalPos="352.78" arrivalSpeed="0.00" from="-1096883479#0" to="29384659#1"/>
    <trip id="carIn377:1" type="default" depart="362.00" departPos="1.00" arrivalPos="158.41" arrivalSpeed="0.00" from="-1123106898" to="1070124287"/>
    <trip id="carIn1104:1" type="default" depart="363.00" departPos="1.00" arrivalPos="16.46" arrivalSpeed="0.00" from="-1096883479#0" to="-534588621#1"/>
    <trip id="randUni17516:1" type="random" depart="363.00" departPos="0.20" arrivalPos="7.08" arrivalSpeed="0.00" from="272780748" to="915958605#3"/>
    <trip id="carIn1996:1" type="default" depart="364.00" departPos="1.00" arrivalPos="0.09" arrivalSpeed="0.00" from="-1123106898" to="175885746#3"/>
    <trip id="carIn631:1" type="default" depart="365.00" departPos="1.00" arrivalPos="301.57" arrivalSpeed="0.00" from="-1096883479#0" to="200422335#0"/>
    <trip id="carIn1382:1" type="default" depart="365.00" departPos="1.00" arrivalPos="42.04" arrivalSpeed="0.00" from="-1096883479#0" to="339201217"/>
    <trip id="randUni11856:1" type="random" depart="366.00" departPos="1.65" arrivalPos="18.87" arrivalSpeed="0.00" from="1071049493#0" to="533594858"/>
    <trip id="carIn1606:1" type="default" depart="367.00" departPos="1.00" arrivalPos="178.60" arrivalSpeed="0.00" from="-1096883479#0" to="384294423"/>
    <trip id="carIn84:1" type="default" depart="368.00" departPos="1.00" arrivalPos="43.56" arrivalSpeed="0.00" from="-1096883479#0" to="327481215"/>
    <trip id="carIn714:1" type="default" depart="369.00" departPos="1.00" arrivalPos="52.52" arrivalSpeed="0.00" from="-1096883479#0" to="35578576#2"/>
    <trip id="h1906c1:1" type="default" depart="370.00" departPos="17.54" arrivalPos="14.30" arrivalSpeed="0.00" from="131505631" to="23809678#3"/>
    <trip id="h2732c1:1" type="default" depart="371.00" departPos="41.92" arrivalPos="1.00" arrivalSpeed="0.00" from="24992424#0" to="-1123106898"/>
    <trip id="carIn333:1" type="default" depart="373.00" departPos="1.00" arrivalPos="5.73" arrivalSpeed="0.00" from="-1096883479#0" to="168942727#0"/>
    <trip id="carIn667:1" type="default" depart="373.00" departPos="1.00" arrivalPos="1.00" arrivalSpeed="0.00" from="-1123106898" to="-1096883479#0"/>
    <trip id="randUni19556:1" type="random" depart="374.00" departPos="2.34" arrivalPos="28.64" arrivalSpeed="0.00" from="1090247388#1" to="893334270#0"/>
    <trip id="carIn1067:1" type="default" depart="378.00" departPos="1.00" arrivalPos="225.11" arrivalSpeed="0.00" from="-1123106898" to="32590636#1"/>
    <trip id="carIn413:1" type="default" depart="379.00" departPos="1.00" arrivalPos="54.20" arrivalSpeed="0.00" from="-1096883479#0" to="-1123106322#2"/>
    <trip id="carIn161:1" type="default" depart="381.00" departPos="1.00" arrivalPos="7.97" arrivalSpeed="0.00" from="-1123106898" to="195411594#1"/>
    <trip id="carIn1658:1" type="default" depart="383.00" departPos="1.00" arrivalPos="1.00" arrivalSpeed="0.00" from="-1096883479#0" to="-1096883479#0"/>
    <trip id="carIn767:1" type="default" depart="386.00" departPos="1.00" arrivalPos="2.81" arrivalSpeed="0.00" from="-1096883479#0" to="499860008#0"/>
    <trip id="carIn1220:1" type="default" depart="386.00" departPos="1.00" arrivalPos="225.62" arrivalSpeed="0.00" from="-1096883479#0" to="137630051"/>
    <trip id="randUni8630:1" type="random" depart="387.00" departPos="25.29" arrivalPos="0.90" arrivalSpeed="0.00" from="643101296" to="-194167249"/>
    <trip id="carIn541:1" type="default" depart="390.00" departPos="1.00" arrivalPos="16.96" arrivalSpeed="0.00" from="-1096883479#0" to="143931934#3"/>
    <trip id="carIn182:1" type="default" depart="392.00" departPos="1.00" arrivalPos="292.75" arrivalSpeed="0.00" from="-1123106898" to="940764590"/>
    <trip id="carIn1441:1" type="default" depart="392.00" departPos="1.00" arrivalPos="1.00" arrivalSpeed="0.00" from="-1096883479#0" to="-1123106898"/>
    <trip id="carIn1477:1" type="default" depart="392.00" departPos="1.00" arrivalPos="16.98" arrivalSpeed="0.00" from="-1123106898" to="-576287027"/>
    <trip id="randUni20363:1" type="random" depart="395.00" departPos="0.00" arrivalPos="8.67" arrivalSpeed="0.00" from="46517262#5" to="-4592739#2"/>
    <trip id="carIn270:1" type="default" depart="397.00" departPos="1.00" arrivalPos="43.95" arrivalSpeed="0.00" from="-1096883479#0" to="194167256#1"/>
    <trip id="carIn861:1" type="default" depart="398.00" departPos="1.00" arrivalPos="69.73" arrivalSpeed="0.00" from="-1123106898" to="335043673#2"/>
    <trip id="carIn870:1" type="default" depart="398.00" departPos="1.00" arrivalPos="1079.58" arrivalSpeed="0.00" from="-1123106898" to="200422335#0"/>
    <trip id="carIn1878:1" type="default" depart="400.00" departPos="1.00" arrivalPos="661.97" arrivalSpeed="0.00" from="-1123106898" to="32590649"/>
    <trip id="carIn837:1" type="default" depart="401.00" departPos="1.00" arrivalPos="93.19" arrivalSpeed="0.00" from="-1123106898" to="23809678#1"/>
    <trip id="randUni7582:1" type="random" depart="403.00" departPos="1.51" arrivalPos="18.22" arrivalSpeed="0.00" from="196850609#0" to="260138639#1"/>
    <trip id="carIn1895:1" type="default" depart="405.00" departPos="1.00" arrivalPos="33.30" arrivalSpeed="0.00" from="-1123106898" to="454881060#0"/>
    <trip id="carIn391:1" type="default" depart="406.00" departPos="1.00" arrivalPos="1.72" arrivalSpeed="0.00" from="-1096883479#0" to="915958601#2"/>
    <trip id="h461c1:1" type="default" depart="407.00" departPos="35.96" arrivalPos="1.00" arrivalSpeed="0.00" from="-312651885" to="-1096883479#0"/>
    <trip id="carIn1874:1" type="default" depart="407.00" departPos="1.00" arrivalPos="1210.09" arrivalSpeed="0.00" from="-1123106898" to="438860779"/>
    <trip id="h2545c1:1" type="default" depart="409.00" departPos="59.76" arrivalPos="42.90" arrivalSpeed="0.00" from="23121445#0" to="24243056"/>
    <trip id="carIn327:1" type="default" depart="410.00" departPos="1.00" arrivalPos="20.71" arrivalSpeed="0.00" from="-1096883479#0" to="-899946801#0"/>
    <trip id="carIn1913:1" type="default" depart="410.00" departPos="1.00" arrivalPos="0.04" arrivalSpeed="0.00" from="-1123106898" to="532972718#0"/>
    <trip id="carIn226:1" type="default" depart="411.00" departPos="1.00" arrivalPos="199.07" arrivalSpeed="0.00" from="-1123106898" to="82652816"/>
    <trip id="carIn1932:1" type="default" depart="412.00" departPos="1.00" arrivalPos="15.73" arrivalSpeed="0.00" from="-1096883479#0" to="831694400"/>
    <trip id="carIn1237:1" type="default" depart="413.00" departPos="1.00" arrivalPos="1.00" arrivalSpeed="0.00" from="-1096883479#0" to="-1096883479#0"/>
    <trip id="h9c1:1" type="default" depart="415.00" departPos="195.66" arrivalPos="1.82" arrivalSpeed="0.00" from="-1024034687" to="1117432853"/>
    <trip id="carIn507:1" type="default" depart="415.00" departPos="1.00" arrivalPos="5.09" arrivalSpeed="0.00" from="-1096883479#0" to="942234138#1"/>
    <trip id="carIn1736:1" type="default" depart="416.00" departPos="1.00" arrivalPos="49.43" arrivalSpeed="0.00" from="-1096883479#0" to="1079045031#0"/>
    <trip id="carIn460:1" type="default" depart="417.00" departPos="1.00" arrivalPos="56.87" arrivalSpeed="0.00" from="-1123106898" to="4613286#2"/>
    <trip id="carIn1962:1" type="default" depart="417.00" departPos="1.00" arrivalPos="59.55" arrivalSpeed="0.00" from="-1096883479#0" to="43595022#3"/>
    <trip id="carIn1157:1" type="default" depart="418.00" departPos="1.00" arrivalPos="7.03" arrivalSpeed="0.00" from="-1096883479#0" to="4612968#2"/>
    <trip id="h4173c1:1" type="default" depart="419.00" departPos="56.77" arrivalPos="24.50" arrivalSpeed="0.00" from="4613300#4" to="-4597206#0"/>
    <trip id="carIn502:1" type="default" depart="419.00" departPos="1.00" arrivalPos="66.32" arrivalSpeed="0.00" from="-1123106898" to="154321040#6"/>